* NGSPICE file created from BinMultiplier.ext - technology: gf180mcuC

* Black-box entry subcircuit for gf180mcu_fd_sc_mcu7t5v0__filltie abstract view
.subckt gf180mcu_fd_sc_mcu7t5v0__filltie VDD VSS
.ends

* Black-box entry subcircuit for gf180mcu_fd_sc_mcu7t5v0__xnor2_1 abstract view
.subckt gf180mcu_fd_sc_mcu7t5v0__xnor2_1 A1 A2 ZN VDD VSS
.ends

* Black-box entry subcircuit for gf180mcu_fd_sc_mcu7t5v0__fillcap_16 abstract view
.subckt gf180mcu_fd_sc_mcu7t5v0__fillcap_16 VDD VSS
.ends

* Black-box entry subcircuit for gf180mcu_fd_sc_mcu7t5v0__xor2_1 abstract view
.subckt gf180mcu_fd_sc_mcu7t5v0__xor2_1 A1 A2 Z VDD VSS
.ends

* Black-box entry subcircuit for gf180mcu_fd_sc_mcu7t5v0__fill_2 abstract view
.subckt gf180mcu_fd_sc_mcu7t5v0__fill_2 VDD VSS
.ends

* Black-box entry subcircuit for gf180mcu_fd_sc_mcu7t5v0__antenna abstract view
.subckt gf180mcu_fd_sc_mcu7t5v0__antenna I VDD VSS
.ends

* Black-box entry subcircuit for gf180mcu_fd_sc_mcu7t5v0__fill_1 abstract view
.subckt gf180mcu_fd_sc_mcu7t5v0__fill_1 VDD VSS
.ends

* Black-box entry subcircuit for gf180mcu_fd_sc_mcu7t5v0__fillcap_4 abstract view
.subckt gf180mcu_fd_sc_mcu7t5v0__fillcap_4 VDD VSS
.ends

* Black-box entry subcircuit for gf180mcu_fd_sc_mcu7t5v0__or2_1 abstract view
.subckt gf180mcu_fd_sc_mcu7t5v0__or2_1 A1 A2 Z VDD VSS
.ends

* Black-box entry subcircuit for gf180mcu_fd_sc_mcu7t5v0__nand2_1 abstract view
.subckt gf180mcu_fd_sc_mcu7t5v0__nand2_1 A1 A2 ZN VDD VSS
.ends

* Black-box entry subcircuit for gf180mcu_fd_sc_mcu7t5v0__aoi21_1 abstract view
.subckt gf180mcu_fd_sc_mcu7t5v0__aoi21_1 A1 A2 B ZN VDD VSS
.ends

* Black-box entry subcircuit for gf180mcu_fd_sc_mcu7t5v0__xnor3_1 abstract view
.subckt gf180mcu_fd_sc_mcu7t5v0__xnor3_1 A1 A2 A3 ZN VDD VSS
.ends

* Black-box entry subcircuit for gf180mcu_fd_sc_mcu7t5v0__fillcap_8 abstract view
.subckt gf180mcu_fd_sc_mcu7t5v0__fillcap_8 VDD VSS
.ends

* Black-box entry subcircuit for gf180mcu_fd_sc_mcu7t5v0__oai21_1 abstract view
.subckt gf180mcu_fd_sc_mcu7t5v0__oai21_1 A1 A2 B ZN VDD VSS
.ends

* Black-box entry subcircuit for gf180mcu_fd_sc_mcu7t5v0__clkinv_1 abstract view
.subckt gf180mcu_fd_sc_mcu7t5v0__clkinv_1 I ZN VDD VSS
.ends

* Black-box entry subcircuit for gf180mcu_fd_sc_mcu7t5v0__nand3_1 abstract view
.subckt gf180mcu_fd_sc_mcu7t5v0__nand3_1 A1 A2 A3 ZN VDD VSS
.ends

* Black-box entry subcircuit for gf180mcu_fd_sc_mcu7t5v0__nor2_1 abstract view
.subckt gf180mcu_fd_sc_mcu7t5v0__nor2_1 A1 A2 ZN VDD VSS
.ends

* Black-box entry subcircuit for gf180mcu_fd_sc_mcu7t5v0__clkbuf_2 abstract view
.subckt gf180mcu_fd_sc_mcu7t5v0__clkbuf_2 I Z VDD VSS
.ends

* Black-box entry subcircuit for gf180mcu_fd_sc_mcu7t5v0__oai21_2 abstract view
.subckt gf180mcu_fd_sc_mcu7t5v0__oai21_2 A1 A2 B ZN VDD VSS
.ends

* Black-box entry subcircuit for gf180mcu_fd_sc_mcu7t5v0__oai211_2 abstract view
.subckt gf180mcu_fd_sc_mcu7t5v0__oai211_2 A1 A2 B C ZN VDD VSS
.ends

* Black-box entry subcircuit for gf180mcu_fd_sc_mcu7t5v0__nor2_2 abstract view
.subckt gf180mcu_fd_sc_mcu7t5v0__nor2_2 A1 A2 ZN VDD VSS
.ends

* Black-box entry subcircuit for gf180mcu_fd_sc_mcu7t5v0__clkbuf_3 abstract view
.subckt gf180mcu_fd_sc_mcu7t5v0__clkbuf_3 I Z VDD VSS
.ends

* Black-box entry subcircuit for gf180mcu_fd_sc_mcu7t5v0__aoi22_1 abstract view
.subckt gf180mcu_fd_sc_mcu7t5v0__aoi22_1 A1 A2 B1 B2 ZN VDD VSS
.ends

* Black-box entry subcircuit for gf180mcu_fd_sc_mcu7t5v0__xor3_1 abstract view
.subckt gf180mcu_fd_sc_mcu7t5v0__xor3_1 A1 A2 A3 Z VDD VSS
.ends

* Black-box entry subcircuit for gf180mcu_fd_sc_mcu7t5v0__and2_1 abstract view
.subckt gf180mcu_fd_sc_mcu7t5v0__and2_1 A1 A2 Z VDD VSS
.ends

* Black-box entry subcircuit for gf180mcu_fd_sc_mcu7t5v0__nand4_2 abstract view
.subckt gf180mcu_fd_sc_mcu7t5v0__nand4_2 A1 A2 A3 A4 ZN VDD VSS
.ends

* Black-box entry subcircuit for gf180mcu_fd_sc_mcu7t5v0__oai22_1 abstract view
.subckt gf180mcu_fd_sc_mcu7t5v0__oai22_1 A1 A2 B1 B2 ZN VDD VSS
.ends

* Black-box entry subcircuit for gf180mcu_fd_sc_mcu7t5v0__fillcap_32 abstract view
.subckt gf180mcu_fd_sc_mcu7t5v0__fillcap_32 VDD VSS
.ends

* Black-box entry subcircuit for gf180mcu_fd_sc_mcu7t5v0__and3_1 abstract view
.subckt gf180mcu_fd_sc_mcu7t5v0__and3_1 A1 A2 A3 Z VDD VSS
.ends

* Black-box entry subcircuit for gf180mcu_fd_sc_mcu7t5v0__clkbuf_1 abstract view
.subckt gf180mcu_fd_sc_mcu7t5v0__clkbuf_1 I Z VDD VSS
.ends

* Black-box entry subcircuit for gf180mcu_fd_sc_mcu7t5v0__or4_1 abstract view
.subckt gf180mcu_fd_sc_mcu7t5v0__or4_1 A1 A2 A3 A4 Z VDD VSS
.ends

* Black-box entry subcircuit for gf180mcu_fd_sc_mcu7t5v0__buf_2 abstract view
.subckt gf180mcu_fd_sc_mcu7t5v0__buf_2 I Z VDD VSS
.ends

* Black-box entry subcircuit for gf180mcu_fd_sc_mcu7t5v0__oai211_1 abstract view
.subckt gf180mcu_fd_sc_mcu7t5v0__oai211_1 A1 A2 B C ZN VDD VSS
.ends

* Black-box entry subcircuit for gf180mcu_fd_sc_mcu7t5v0__aoi21_2 abstract view
.subckt gf180mcu_fd_sc_mcu7t5v0__aoi21_2 A1 A2 B ZN VDD VSS
.ends

* Black-box entry subcircuit for gf180mcu_fd_sc_mcu7t5v0__oai32_1 abstract view
.subckt gf180mcu_fd_sc_mcu7t5v0__oai32_1 A1 A2 A3 B1 B2 ZN VDD VSS
.ends

* Black-box entry subcircuit for gf180mcu_fd_sc_mcu7t5v0__and4_1 abstract view
.subckt gf180mcu_fd_sc_mcu7t5v0__and4_1 A1 A2 A3 A4 Z VDD VSS
.ends

* Black-box entry subcircuit for gf180mcu_fd_sc_mcu7t5v0__oai33_1 abstract view
.subckt gf180mcu_fd_sc_mcu7t5v0__oai33_1 A1 A2 A3 B1 B2 B3 ZN VDD VSS
.ends

* Black-box entry subcircuit for gf180mcu_fd_sc_mcu7t5v0__aoi211_1 abstract view
.subckt gf180mcu_fd_sc_mcu7t5v0__aoi211_1 A1 A2 B C ZN VDD VSS
.ends

* Black-box entry subcircuit for gf180mcu_fd_sc_mcu7t5v0__endcap abstract view
.subckt gf180mcu_fd_sc_mcu7t5v0__endcap VDD VSS
.ends

* Black-box entry subcircuit for gf180mcu_fd_sc_mcu7t5v0__oai31_2 abstract view
.subckt gf180mcu_fd_sc_mcu7t5v0__oai31_2 A1 A2 A3 B ZN VDD VSS
.ends

* Black-box entry subcircuit for gf180mcu_fd_sc_mcu7t5v0__nor3_1 abstract view
.subckt gf180mcu_fd_sc_mcu7t5v0__nor3_1 A1 A2 A3 ZN VDD VSS
.ends

* Black-box entry subcircuit for gf180mcu_fd_sc_mcu7t5v0__or3_1 abstract view
.subckt gf180mcu_fd_sc_mcu7t5v0__or3_1 A1 A2 A3 Z VDD VSS
.ends

* Black-box entry subcircuit for gf180mcu_fd_sc_mcu7t5v0__oai22_2 abstract view
.subckt gf180mcu_fd_sc_mcu7t5v0__oai22_2 A1 A2 B1 B2 ZN VDD VSS
.ends

* Black-box entry subcircuit for gf180mcu_fd_sc_mcu7t5v0__dffq_1 abstract view
.subckt gf180mcu_fd_sc_mcu7t5v0__dffq_1 D CLK Q VDD VSS
.ends

* Black-box entry subcircuit for gf180mcu_fd_sc_mcu7t5v0__oai31_1 abstract view
.subckt gf180mcu_fd_sc_mcu7t5v0__oai31_1 A1 A2 A3 B ZN VDD VSS
.ends

* Black-box entry subcircuit for gf180mcu_fd_sc_mcu7t5v0__buf_1 abstract view
.subckt gf180mcu_fd_sc_mcu7t5v0__buf_1 I Z VDD VSS
.ends

* Black-box entry subcircuit for gf180mcu_fd_sc_mcu7t5v0__dlyc_1 abstract view
.subckt gf180mcu_fd_sc_mcu7t5v0__dlyc_1 I Z VDD VSS
.ends

* Black-box entry subcircuit for gf180mcu_fd_sc_mcu7t5v0__dlyb_1 abstract view
.subckt gf180mcu_fd_sc_mcu7t5v0__dlyb_1 I Z VDD VSS
.ends

* Black-box entry subcircuit for gf180mcu_fd_sc_mcu7t5v0__dlyd_1 abstract view
.subckt gf180mcu_fd_sc_mcu7t5v0__dlyd_1 I Z VDD VSS
.ends

* Black-box entry subcircuit for gf180mcu_fd_sc_mcu7t5v0__aoi211_2 abstract view
.subckt gf180mcu_fd_sc_mcu7t5v0__aoi211_2 A1 A2 B C ZN VDD VSS
.ends

* Black-box entry subcircuit for gf180mcu_fd_sc_mcu7t5v0__nand4_1 abstract view
.subckt gf180mcu_fd_sc_mcu7t5v0__nand4_1 A1 A2 A3 A4 ZN VDD VSS
.ends

* Black-box entry subcircuit for gf180mcu_fd_sc_mcu7t5v0__aoi22_2 abstract view
.subckt gf180mcu_fd_sc_mcu7t5v0__aoi22_2 A1 A2 B1 B2 ZN VDD VSS
.ends

.subckt BinMultiplier Y[0] Y[10] Y[11] Y[12] Y[13] Y[14] Y[15] Y[16] Y[17] Y[18] Y[19]
+ Y[1] Y[20] Y[21] Y[22] Y[23] Y[24] Y[25] Y[26] Y[27] Y[28] Y[29] Y[2] Y[30] Y[31]
+ Y[3] Y[4] Y[5] Y[6] Y[7] Y[8] Y[9] clk dba[0] dba[10] dba[11] dba[12] dba[13] dba[14]
+ dba[15] dba[1] dba[2] dba[3] dba[4] dba[5] dba[6] dba[7] dba[8] dba[9] dbb[0] dbb[10]
+ dbb[11] dbb[12] dbb[13] dbb[14] dbb[15] dbb[1] dbb[2] dbb[3] dbb[4] dbb[5] dbb[6]
+ dbb[7] dbb[8] dbb[9] done enable rst vdd vss yA[0] yA[10] yA[11] yA[12] yA[13] yA[14]
+ yA[15] yA[1] yA[2] yA[3] yA[4] yA[5] yA[6] yA[7] yA[8] yA[9] yB[0] yB[10] yB[11]
+ yB[12] yB[13] yB[14] yB[15] yB[1] yB[2] yB[3] yB[4] yB[5] yB[6] yB[7] yB[8] yB[9]
XTAP_177 vdd vss gf180mcu_fd_sc_mcu7t5v0__filltie
XTAP_188 vdd vss gf180mcu_fd_sc_mcu7t5v0__filltie
XTAP_199 vdd vss gf180mcu_fd_sc_mcu7t5v0__filltie
X_2106_ _1099_ _1153_ _1154_ vdd vss gf180mcu_fd_sc_mcu7t5v0__xnor2_1
XFILLER_27_428 vdd vss gf180mcu_fd_sc_mcu7t5v0__fillcap_16
X_2037_ _1045_ _1078_ _1079_ vdd vss gf180mcu_fd_sc_mcu7t5v0__xor2_1
XFILLER_10_317 vdd vss gf180mcu_fd_sc_mcu7t5v0__fill_2
XFILLER_10_339 vdd vss gf180mcu_fd_sc_mcu7t5v0__fill_2
XANTENNA__2182__A2 _1070_ vdd vss gf180mcu_fd_sc_mcu7t5v0__antenna
XFILLER_18_406 vdd vss gf180mcu_fd_sc_mcu7t5v0__fill_2
XFILLER_18_439 vdd vss gf180mcu_fd_sc_mcu7t5v0__fill_2
XANTENNA_output37_I net37 vdd vss gf180mcu_fd_sc_mcu7t5v0__antenna
XFILLER_14_623 vdd vss gf180mcu_fd_sc_mcu7t5v0__fill_1
XFILLER_26_472 vdd vss gf180mcu_fd_sc_mcu7t5v0__fillcap_16
XFILLER_13_122 vdd vss gf180mcu_fd_sc_mcu7t5v0__fill_2
XFILLER_26_494 vdd vss gf180mcu_fd_sc_mcu7t5v0__fill_1
XANTENNA__1445__A1 _0193_ vdd vss gf180mcu_fd_sc_mcu7t5v0__antenna
XFILLER_13_144 vdd vss gf180mcu_fd_sc_mcu7t5v0__fill_2
XFILLER_42_62 vdd vss gf180mcu_fd_sc_mcu7t5v0__fill_2
XFILLER_42_40 vdd vss gf180mcu_fd_sc_mcu7t5v0__fill_2
XFILLER_9_137 vdd vss gf180mcu_fd_sc_mcu7t5v0__fill_2
XANTENNA__1748__A2 _0787_ vdd vss gf180mcu_fd_sc_mcu7t5v0__antenna
XANTENNA__2173__A2 _1226_ vdd vss gf180mcu_fd_sc_mcu7t5v0__antenna
XFILLER_3_56 vdd vss gf180mcu_fd_sc_mcu7t5v0__fillcap_4
XANTENNA__1684__A1 _1040_ vdd vss gf180mcu_fd_sc_mcu7t5v0__antenna
XFILLER_36_258 vdd vss gf180mcu_fd_sc_mcu7t5v0__fill_2
XFILLER_36_247 vdd vss gf180mcu_fd_sc_mcu7t5v0__fill_1
XANTENNA__1389__I net17 vdd vss gf180mcu_fd_sc_mcu7t5v0__antenna
XFILLER_17_494 vdd vss gf180mcu_fd_sc_mcu7t5v0__fill_2
XFILLER_32_431 vdd vss gf180mcu_fd_sc_mcu7t5v0__fill_2
XFILLER_32_453 vdd vss gf180mcu_fd_sc_mcu7t5v0__fill_1
XFILLER_20_626 vdd vss gf180mcu_fd_sc_mcu7t5v0__fill_2
XFILLER_32_486 vdd vss gf180mcu_fd_sc_mcu7t5v0__fill_2
XFILLER_8_170 vdd vss gf180mcu_fd_sc_mcu7t5v0__fill_2
X_2724_ _0366_ _0410_ _0431_ vdd vss gf180mcu_fd_sc_mcu7t5v0__or2_1
X_2655_ _0318_ _0342_ _0357_ vdd vss gf180mcu_fd_sc_mcu7t5v0__nand2_1
X_1606_ _1375_ _0526_ _0648_ vdd vss gf180mcu_fd_sc_mcu7t5v0__nand2_1
X_2586_ _0278_ _0283_ _0284_ vdd vss gf180mcu_fd_sc_mcu7t5v0__xor2_1
X_1537_ _0560_ _0578_ _0579_ _0580_ vdd vss gf180mcu_fd_sc_mcu7t5v0__aoi21_1
X_1468_ _0428_ _0461_ _0492_ _0503_ vdd vss gf180mcu_fd_sc_mcu7t5v0__xnor3_1
X_1399_ _1116_ _1138_ _1149_ vdd vss gf180mcu_fd_sc_mcu7t5v0__nand2_1
XANTENNA__1675__A1 _1288_ vdd vss gf180mcu_fd_sc_mcu7t5v0__antenna
XANTENNA__2467__A3 _1351_ vdd vss gf180mcu_fd_sc_mcu7t5v0__antenna
XFILLER_23_453 vdd vss gf180mcu_fd_sc_mcu7t5v0__fillcap_8
XFILLER_11_626 vdd vss gf180mcu_fd_sc_mcu7t5v0__fillcap_8
XFILLER_7_619 vdd vss gf180mcu_fd_sc_mcu7t5v0__fill_2
XFILLER_10_136 vdd vss gf180mcu_fd_sc_mcu7t5v0__fill_1
XANTENNA__2155__A2 _0905_ vdd vss gf180mcu_fd_sc_mcu7t5v0__antenna
XFILLER_2_379 vdd vss gf180mcu_fd_sc_mcu7t5v0__fill_1
XANTENNA__1666__A1 net11 vdd vss gf180mcu_fd_sc_mcu7t5v0__antenna
XFILLER_37_73 vdd vss gf180mcu_fd_sc_mcu7t5v0__fillcap_16
XFILLER_18_247 vdd vss gf180mcu_fd_sc_mcu7t5v0__fill_1
XFILLER_33_217 vdd vss gf180mcu_fd_sc_mcu7t5v0__fill_1
XFILLER_14_431 vdd vss gf180mcu_fd_sc_mcu7t5v0__fill_2
XFILLER_26_280 vdd vss gf180mcu_fd_sc_mcu7t5v0__fill_2
XANTENNA__1418__A1 _1029_ vdd vss gf180mcu_fd_sc_mcu7t5v0__antenna
XFILLER_33_239 vdd vss gf180mcu_fd_sc_mcu7t5v0__fill_2
XFILLER_14_453 vdd vss gf180mcu_fd_sc_mcu7t5v0__fillcap_8
XFILLER_41_283 vdd vss gf180mcu_fd_sc_mcu7t5v0__fill_1
XFILLER_6_685 vdd vss gf180mcu_fd_sc_mcu7t5v0__fill_2
X_2440_ net18 net3 _0126_ vdd vss gf180mcu_fd_sc_mcu7t5v0__nand2_1
XANTENNA__2146__A2 _1132_ vdd vss gf180mcu_fd_sc_mcu7t5v0__antenna
X_2371_ _0043_ _0051_ _0052_ vdd vss gf180mcu_fd_sc_mcu7t5v0__xnor2_1
XFILLER_37_523 vdd vss gf180mcu_fd_sc_mcu7t5v0__fill_1
XFILLER_37_567 vdd vss gf180mcu_fd_sc_mcu7t5v0__fill_1
XFILLER_37_545 vdd vss gf180mcu_fd_sc_mcu7t5v0__fill_2
XFILLER_37_578 vdd vss gf180mcu_fd_sc_mcu7t5v0__fill_2
XFILLER_24_206 vdd vss gf180mcu_fd_sc_mcu7t5v0__fill_2
XANTENNA__2082__A1 _1050_ vdd vss gf180mcu_fd_sc_mcu7t5v0__antenna
XFILLER_32_250 vdd vss gf180mcu_fd_sc_mcu7t5v0__fill_1
XANTENNA__2385__A2 _0781_ vdd vss gf180mcu_fd_sc_mcu7t5v0__antenna
X_2707_ _0360_ _0381_ _0412_ _0413_ vdd vss gf180mcu_fd_sc_mcu7t5v0__oai21_1
X_2638_ _0334_ _0338_ _0339_ vdd vss gf180mcu_fd_sc_mcu7t5v0__xor2_1
X_2569_ _0241_ _0264_ _0265_ vdd vss gf180mcu_fd_sc_mcu7t5v0__nand2_1
XANTENNA__1896__A1 _0864_ vdd vss gf180mcu_fd_sc_mcu7t5v0__antenna
XFILLER_28_501 vdd vss gf180mcu_fd_sc_mcu7t5v0__fill_2
XFILLER_28_534 vdd vss gf180mcu_fd_sc_mcu7t5v0__fill_1
XFILLER_28_567 vdd vss gf180mcu_fd_sc_mcu7t5v0__fillcap_4
XFILLER_23_283 vdd vss gf180mcu_fd_sc_mcu7t5v0__fill_1
XFILLER_11_489 vdd vss gf180mcu_fd_sc_mcu7t5v0__fill_2
XFILLER_3_644 vdd vss gf180mcu_fd_sc_mcu7t5v0__fillcap_4
XFILLER_2_132 vdd vss gf180mcu_fd_sc_mcu7t5v0__fill_1
XFILLER_2_176 vdd vss gf180mcu_fd_sc_mcu7t5v0__fill_1
XFILLER_19_523 vdd vss gf180mcu_fd_sc_mcu7t5v0__fillcap_8
XANTENNA__2300__A2 net18 vdd vss gf180mcu_fd_sc_mcu7t5v0__antenna
XFILLER_0_46 vdd vss gf180mcu_fd_sc_mcu7t5v0__fill_1
XFILLER_19_567 vdd vss gf180mcu_fd_sc_mcu7t5v0__fill_1
XFILLER_19_589 vdd vss gf180mcu_fd_sc_mcu7t5v0__fillcap_8
X_1940_ _0364_ _0661_ _0977_ vdd vss gf180mcu_fd_sc_mcu7t5v0__nand2_1
XFILLER_14_250 vdd vss gf180mcu_fd_sc_mcu7t5v0__fillcap_16
XANTENNA__2064__A1 net9 vdd vss gf180mcu_fd_sc_mcu7t5v0__antenna
XFILLER_9_77 vdd vss gf180mcu_fd_sc_mcu7t5v0__fill_2
X_1871_ _0908_ _0909_ vdd vss gf180mcu_fd_sc_mcu7t5v0__clkinv_1
XANTENNA__2367__A2 _1380_ vdd vss gf180mcu_fd_sc_mcu7t5v0__antenna
X_2423_ _0598_ _1009_ _1351_ _0108_ vdd vss gf180mcu_fd_sc_mcu7t5v0__nand3_1
X_2354_ _1350_ _1351_ _0034_ vdd vss gf180mcu_fd_sc_mcu7t5v0__nor2_1
XANTENNA__1878__A1 net11 vdd vss gf180mcu_fd_sc_mcu7t5v0__antenna
X_2285_ _1201_ _1344_ _1345_ _1346_ vdd vss gf180mcu_fd_sc_mcu7t5v0__oai21_1
XFILLER_40_529 vdd vss gf180mcu_fd_sc_mcu7t5v0__fill_2
XFILLER_33_570 vdd vss gf180mcu_fd_sc_mcu7t5v0__fillcap_16
XANTENNA__1802__A1 _1288_ vdd vss gf180mcu_fd_sc_mcu7t5v0__antenna
XFILLER_20_242 vdd vss gf180mcu_fd_sc_mcu7t5v0__fill_2
XANTENNA__1869__A1 _1127_ vdd vss gf180mcu_fd_sc_mcu7t5v0__antenna
XANTENNA__1869__B2 net1 vdd vss gf180mcu_fd_sc_mcu7t5v0__antenna
XFILLER_18_42 vdd vss gf180mcu_fd_sc_mcu7t5v0__fillcap_4
XFILLER_28_386 vdd vss gf180mcu_fd_sc_mcu7t5v0__fillcap_4
XFILLER_24_570 vdd vss gf180mcu_fd_sc_mcu7t5v0__fill_2
XFILLER_24_581 vdd vss gf180mcu_fd_sc_mcu7t5v0__fill_1
XANTENNA__2046__A1 _1192_ vdd vss gf180mcu_fd_sc_mcu7t5v0__antenna
XFILLER_31_529 vdd vss gf180mcu_fd_sc_mcu7t5v0__fill_2
XFILLER_24_592 vdd vss gf180mcu_fd_sc_mcu7t5v0__fill_2
XFILLER_7_257 vdd vss gf180mcu_fd_sc_mcu7t5v0__fill_2
XFILLER_11_286 vdd vss gf180mcu_fd_sc_mcu7t5v0__fill_2
XTAP_507 vdd vss gf180mcu_fd_sc_mcu7t5v0__filltie
XFILLER_3_496 vdd vss gf180mcu_fd_sc_mcu7t5v0__fill_1
XFILLER_15_6 vdd vss gf180mcu_fd_sc_mcu7t5v0__fill_2
X_2070_ _0214_ _0813_ _1114_ vdd vss gf180mcu_fd_sc_mcu7t5v0__nand2_1
XFILLER_15_570 vdd vss gf180mcu_fd_sc_mcu7t5v0__fill_1
XFILLER_34_378 vdd vss gf180mcu_fd_sc_mcu7t5v0__fill_1
XFILLER_34_389 vdd vss gf180mcu_fd_sc_mcu7t5v0__fill_1
X_1923_ _0884_ _0897_ _0960_ vdd vss gf180mcu_fd_sc_mcu7t5v0__nor2_1
XANTENNA__1397__I net8 vdd vss gf180mcu_fd_sc_mcu7t5v0__antenna
XFILLER_30_562 vdd vss gf180mcu_fd_sc_mcu7t5v0__fillcap_4
X_1854_ net5 _0892_ vdd vss gf180mcu_fd_sc_mcu7t5v0__clkbuf_2
X_1785_ _0810_ _0823_ _0824_ vdd vss gf180mcu_fd_sc_mcu7t5v0__xnor2_1
XANTENNA__2760__A2 _1384_ vdd vss gf180mcu_fd_sc_mcu7t5v0__antenna
X_2406_ _0086_ _0089_ _0090_ vdd vss gf180mcu_fd_sc_mcu7t5v0__nand2_1
X_2337_ _0013_ _0015_ _0016_ vdd vss gf180mcu_fd_sc_mcu7t5v0__xor2_1
X_2268_ _1324_ _1327_ _1328_ vdd vss gf180mcu_fd_sc_mcu7t5v0__nor2_1
XFILLER_38_673 vdd vss gf180mcu_fd_sc_mcu7t5v0__fill_1
XFILLER_37_150 vdd vss gf180mcu_fd_sc_mcu7t5v0__fillcap_4
XFILLER_25_323 vdd vss gf180mcu_fd_sc_mcu7t5v0__fillcap_4
X_2199_ _1164_ _1173_ _1162_ _1254_ vdd vss gf180mcu_fd_sc_mcu7t5v0__oai21_1
XFILLER_25_345 vdd vss gf180mcu_fd_sc_mcu7t5v0__fill_2
XANTENNA__2028__A1 net25 vdd vss gf180mcu_fd_sc_mcu7t5v0__antenna
XFILLER_13_529 vdd vss gf180mcu_fd_sc_mcu7t5v0__fill_2
XANTENNA__2579__A2 _1383_ vdd vss gf180mcu_fd_sc_mcu7t5v0__antenna
XFILLER_21_573 vdd vss gf180mcu_fd_sc_mcu7t5v0__fill_2
XANTENNA__2751__A2 _0300_ vdd vss gf180mcu_fd_sc_mcu7t5v0__antenna
XFILLER_0_422 vdd vss gf180mcu_fd_sc_mcu7t5v0__fill_1
XFILLER_0_466 vdd vss gf180mcu_fd_sc_mcu7t5v0__fill_2
XANTENNA__1711__B1 _0692_ vdd vss gf180mcu_fd_sc_mcu7t5v0__antenna
XFILLER_28_194 vdd vss gf180mcu_fd_sc_mcu7t5v0__fill_2
XANTENNA__1490__A2 _0214_ vdd vss gf180mcu_fd_sc_mcu7t5v0__antenna
XFILLER_12_551 vdd vss gf180mcu_fd_sc_mcu7t5v0__fillcap_4
XFILLER_6_12 vdd vss gf180mcu_fd_sc_mcu7t5v0__fill_2
X_1570_ _0528_ _0611_ _0612_ _0613_ vdd vss gf180mcu_fd_sc_mcu7t5v0__oai21_2
XFILLER_6_45 vdd vss gf180mcu_fd_sc_mcu7t5v0__fill_2
XTAP_304 vdd vss gf180mcu_fd_sc_mcu7t5v0__filltie
XTAP_315 vdd vss gf180mcu_fd_sc_mcu7t5v0__filltie
XFILLER_3_282 vdd vss gf180mcu_fd_sc_mcu7t5v0__fill_2
XTAP_326 vdd vss gf180mcu_fd_sc_mcu7t5v0__filltie
XTAP_337 vdd vss gf180mcu_fd_sc_mcu7t5v0__filltie
XTAP_348 vdd vss gf180mcu_fd_sc_mcu7t5v0__filltie
XTAP_359 vdd vss gf180mcu_fd_sc_mcu7t5v0__filltie
X_2122_ _0798_ _0801_ _1170_ _1165_ _1172_ vdd vss gf180mcu_fd_sc_mcu7t5v0__oai211_2
XFILLER_19_150 vdd vss gf180mcu_fd_sc_mcu7t5v0__fill_2
X_2053_ _1031_ _1095_ _1096_ vdd vss gf180mcu_fd_sc_mcu7t5v0__nor2_2
XANTENNA__2258__A1 _1093_ vdd vss gf180mcu_fd_sc_mcu7t5v0__antenna
XFILLER_35_687 vdd vss gf180mcu_fd_sc_mcu7t5v0__fill_1
XFILLER_22_326 vdd vss gf180mcu_fd_sc_mcu7t5v0__fill_2
X_1906_ _0874_ _0881_ _0942_ _0943_ vdd vss gf180mcu_fd_sc_mcu7t5v0__oai21_1
XFILLER_30_392 vdd vss gf180mcu_fd_sc_mcu7t5v0__fill_1
XANTENNA__1855__I _0892_ vdd vss gf180mcu_fd_sc_mcu7t5v0__antenna
X_1837_ _0095_ _0661_ _0875_ vdd vss gf180mcu_fd_sc_mcu7t5v0__nand2_1
X_1768_ _0745_ _0754_ _0807_ vdd vss gf180mcu_fd_sc_mcu7t5v0__nand2_1
X_1699_ _0689_ _0696_ _0739_ vdd vss gf180mcu_fd_sc_mcu7t5v0__nand2_1
XANTENNA__1590__I net32 vdd vss gf180mcu_fd_sc_mcu7t5v0__antenna
XANTENNA__2497__A1 net15 vdd vss gf180mcu_fd_sc_mcu7t5v0__antenna
XFILLER_38_481 vdd vss gf180mcu_fd_sc_mcu7t5v0__fill_2
XFILLER_26_621 vdd vss gf180mcu_fd_sc_mcu7t5v0__fillcap_4
XFILLER_26_654 vdd vss gf180mcu_fd_sc_mcu7t5v0__fill_2
XFILLER_13_304 vdd vss gf180mcu_fd_sc_mcu7t5v0__fill_2
XFILLER_15_10 vdd vss gf180mcu_fd_sc_mcu7t5v0__fill_2
XFILLER_26_676 vdd vss gf180mcu_fd_sc_mcu7t5v0__fill_1
XFILLER_26_687 vdd vss gf180mcu_fd_sc_mcu7t5v0__fill_1
XFILLER_40_123 vdd vss gf180mcu_fd_sc_mcu7t5v0__fillcap_4
XFILLER_15_76 vdd vss gf180mcu_fd_sc_mcu7t5v0__fillcap_8
XANTENNA__2421__A1 _0049_ vdd vss gf180mcu_fd_sc_mcu7t5v0__antenna
XFILLER_5_514 vdd vss gf180mcu_fd_sc_mcu7t5v0__fill_2
XFILLER_31_42 vdd vss gf180mcu_fd_sc_mcu7t5v0__fill_2
XFILLER_31_53 vdd vss gf180mcu_fd_sc_mcu7t5v0__fill_2
Xoutput42 net42 Y[17] vdd vss gf180mcu_fd_sc_mcu7t5v0__clkbuf_3
Xoutput53 net53 Y[27] vdd vss gf180mcu_fd_sc_mcu7t5v0__clkbuf_3
Xoutput64 net64 Y[8] vdd vss gf180mcu_fd_sc_mcu7t5v0__clkbuf_3
Xoutput75 net75 yA[2] vdd vss gf180mcu_fd_sc_mcu7t5v0__clkbuf_3
Xoutput86 net86 yB[12] vdd vss gf180mcu_fd_sc_mcu7t5v0__clkbuf_3
XANTENNA__2488__A1 _0781_ vdd vss gf180mcu_fd_sc_mcu7t5v0__antenna
Xoutput97 net97 yB[8] vdd vss gf180mcu_fd_sc_mcu7t5v0__clkbuf_3
XFILLER_0_296 vdd vss gf180mcu_fd_sc_mcu7t5v0__fill_2
XFILLER_16_131 vdd vss gf180mcu_fd_sc_mcu7t5v0__fill_2
XFILLER_17_643 vdd vss gf180mcu_fd_sc_mcu7t5v0__fill_1
XFILLER_29_492 vdd vss gf180mcu_fd_sc_mcu7t5v0__fill_2
XANTENNA__2660__A1 _0334_ vdd vss gf180mcu_fd_sc_mcu7t5v0__antenna
XFILLER_31_134 vdd vss gf180mcu_fd_sc_mcu7t5v0__fill_1
X_2740_ _0430_ _0431_ _0445_ _0448_ vdd vss gf180mcu_fd_sc_mcu7t5v0__nand3_1
XFILLER_8_330 vdd vss gf180mcu_fd_sc_mcu7t5v0__fill_1
XFILLER_8_352 vdd vss gf180mcu_fd_sc_mcu7t5v0__fill_2
XFILLER_12_392 vdd vss gf180mcu_fd_sc_mcu7t5v0__fill_1
X_2671_ _0814_ _1383_ _1384_ _0747_ _0374_ vdd vss gf180mcu_fd_sc_mcu7t5v0__aoi22_1
X_1622_ _0659_ _0663_ _0664_ vdd vss gf180mcu_fd_sc_mcu7t5v0__xnor2_1
X_1553_ _0593_ _0594_ _0595_ _0596_ vdd vss gf180mcu_fd_sc_mcu7t5v0__xor3_1
XTAP_123 vdd vss gf180mcu_fd_sc_mcu7t5v0__filltie
XTAP_101 vdd vss gf180mcu_fd_sc_mcu7t5v0__filltie
XTAP_112 vdd vss gf180mcu_fd_sc_mcu7t5v0__filltie
X_1484_ _0524_ _0527_ _0528_ vdd vss gf180mcu_fd_sc_mcu7t5v0__xor2_1
XTAP_156 vdd vss gf180mcu_fd_sc_mcu7t5v0__filltie
XTAP_145 vdd vss gf180mcu_fd_sc_mcu7t5v0__filltie
XTAP_134 vdd vss gf180mcu_fd_sc_mcu7t5v0__filltie
XFILLER_39_234 vdd vss gf180mcu_fd_sc_mcu7t5v0__fillcap_16
XFILLER_39_212 vdd vss gf180mcu_fd_sc_mcu7t5v0__fill_1
XTAP_167 vdd vss gf180mcu_fd_sc_mcu7t5v0__filltie
XTAP_178 vdd vss gf180mcu_fd_sc_mcu7t5v0__filltie
XTAP_189 vdd vss gf180mcu_fd_sc_mcu7t5v0__filltie
X_2105_ _1120_ _1152_ _1153_ vdd vss gf180mcu_fd_sc_mcu7t5v0__xor2_1
X_2036_ _1047_ _1077_ _1078_ vdd vss gf180mcu_fd_sc_mcu7t5v0__xnor2_1
XFILLER_35_484 vdd vss gf180mcu_fd_sc_mcu7t5v0__fill_2
XFILLER_23_613 vdd vss gf180mcu_fd_sc_mcu7t5v0__fillcap_4
XFILLER_22_101 vdd vss gf180mcu_fd_sc_mcu7t5v0__fillcap_4
XFILLER_22_156 vdd vss gf180mcu_fd_sc_mcu7t5v0__fill_2
XFILLER_22_189 vdd vss gf180mcu_fd_sc_mcu7t5v0__fillcap_4
XFILLER_2_539 vdd vss gf180mcu_fd_sc_mcu7t5v0__fill_1
XANTENNA__1914__B1 _0692_ vdd vss gf180mcu_fd_sc_mcu7t5v0__antenna
XANTENNA__1693__A2 _0671_ vdd vss gf180mcu_fd_sc_mcu7t5v0__antenna
XFILLER_14_602 vdd vss gf180mcu_fd_sc_mcu7t5v0__fill_1
XFILLER_26_64 vdd vss gf180mcu_fd_sc_mcu7t5v0__fillcap_4
XANTENNA__1445__A2 _0247_ vdd vss gf180mcu_fd_sc_mcu7t5v0__antenna
XFILLER_13_134 vdd vss gf180mcu_fd_sc_mcu7t5v0__fill_2
XFILLER_13_167 vdd vss gf180mcu_fd_sc_mcu7t5v0__fillcap_4
XFILLER_5_333 vdd vss gf180mcu_fd_sc_mcu7t5v0__fillcap_4
XFILLER_1_561 vdd vss gf180mcu_fd_sc_mcu7t5v0__fill_2
XFILLER_36_215 vdd vss gf180mcu_fd_sc_mcu7t5v0__fillcap_8
XFILLER_36_204 vdd vss gf180mcu_fd_sc_mcu7t5v0__fill_2
XANTENNA__1684__A2 _0724_ vdd vss gf180mcu_fd_sc_mcu7t5v0__antenna
XFILLER_36_237 vdd vss gf180mcu_fd_sc_mcu7t5v0__fillcap_8
XFILLER_17_440 vdd vss gf180mcu_fd_sc_mcu7t5v0__fill_2
XFILLER_20_605 vdd vss gf180mcu_fd_sc_mcu7t5v0__fill_1
X_2723_ _0400_ _0429_ _0430_ vdd vss gf180mcu_fd_sc_mcu7t5v0__nand2_1
XANTENNA__2149__B1 net23 vdd vss gf180mcu_fd_sc_mcu7t5v0__antenna
X_2654_ _0320_ _0341_ _0356_ vdd vss gf180mcu_fd_sc_mcu7t5v0__nand2_1
X_1605_ net8 _0584_ _0647_ vdd vss gf180mcu_fd_sc_mcu7t5v0__nand2_1
X_2585_ _0280_ _0281_ _0282_ _0283_ vdd vss gf180mcu_fd_sc_mcu7t5v0__xor3_1
X_1536_ _0562_ _0577_ _0579_ vdd vss gf180mcu_fd_sc_mcu7t5v0__and2_1
X_1467_ _1051_ _0482_ _0492_ vdd vss gf180mcu_fd_sc_mcu7t5v0__nand2_1
X_1398_ _1127_ _1138_ vdd vss gf180mcu_fd_sc_mcu7t5v0__clkbuf_2
XANTENNA__1675__A2 _0568_ vdd vss gf180mcu_fd_sc_mcu7t5v0__antenna
XANTENNA__2467__A4 _0107_ vdd vss gf180mcu_fd_sc_mcu7t5v0__antenna
XANTENNA__2321__B1 _1384_ vdd vss gf180mcu_fd_sc_mcu7t5v0__antenna
XFILLER_27_204 vdd vss gf180mcu_fd_sc_mcu7t5v0__fill_2
XFILLER_27_215 vdd vss gf180mcu_fd_sc_mcu7t5v0__fill_1
XFILLER_35_292 vdd vss gf180mcu_fd_sc_mcu7t5v0__fill_2
X_2019_ _0982_ _0986_ _1059_ vdd vss gf180mcu_fd_sc_mcu7t5v0__nand2_1
XFILLER_23_410 vdd vss gf180mcu_fd_sc_mcu7t5v0__fill_2
XANTENNA__2624__A1 _0274_ vdd vss gf180mcu_fd_sc_mcu7t5v0__antenna
XFILLER_11_638 vdd vss gf180mcu_fd_sc_mcu7t5v0__fill_1
XFILLER_6_108 vdd vss gf180mcu_fd_sc_mcu7t5v0__fill_1
XFILLER_10_126 vdd vss gf180mcu_fd_sc_mcu7t5v0__fill_2
XFILLER_12_11 vdd vss gf180mcu_fd_sc_mcu7t5v0__fill_2
XFILLER_12_66 vdd vss gf180mcu_fd_sc_mcu7t5v0__fill_2
XFILLER_5_5 vdd vss gf180mcu_fd_sc_mcu7t5v0__fill_2
XFILLER_2_369 vdd vss gf180mcu_fd_sc_mcu7t5v0__fill_2
XANTENNA__1666__A2 _0525_ vdd vss gf180mcu_fd_sc_mcu7t5v0__antenna
XFILLER_18_237 vdd vss gf180mcu_fd_sc_mcu7t5v0__fill_2
XANTENNA__1418__A2 _1116_ vdd vss gf180mcu_fd_sc_mcu7t5v0__antenna
XANTENNA__2615__A1 _0305_ vdd vss gf180mcu_fd_sc_mcu7t5v0__antenna
XANTENNA__2091__A2 net2 vdd vss gf180mcu_fd_sc_mcu7t5v0__antenna
XFILLER_41_262 vdd vss gf180mcu_fd_sc_mcu7t5v0__fill_2
XFILLER_14_476 vdd vss gf180mcu_fd_sc_mcu7t5v0__fill_2
XFILLER_5_141 vdd vss gf180mcu_fd_sc_mcu7t5v0__fill_1
X_2370_ net15 net20 _0051_ vdd vss gf180mcu_fd_sc_mcu7t5v0__nand2_1
XANTENNA__1657__A2 _0665_ vdd vss gf180mcu_fd_sc_mcu7t5v0__antenna
XFILLER_32_240 vdd vss gf180mcu_fd_sc_mcu7t5v0__fill_1
XFILLER_20_446 vdd vss gf180mcu_fd_sc_mcu7t5v0__fill_2
XFILLER_20_457 vdd vss gf180mcu_fd_sc_mcu7t5v0__fillcap_4
X_2706_ _0362_ _0379_ _0412_ vdd vss gf180mcu_fd_sc_mcu7t5v0__nand2_1
X_2637_ _0335_ _0337_ _0338_ vdd vss gf180mcu_fd_sc_mcu7t5v0__xnor2_1
XANTENNA__1593__A1 _0631_ vdd vss gf180mcu_fd_sc_mcu7t5v0__antenna
X_2568_ _0246_ _0264_ vdd vss gf180mcu_fd_sc_mcu7t5v0__clkinv_1
X_2499_ _0567_ net23 _0190_ vdd vss gf180mcu_fd_sc_mcu7t5v0__nand2_1
X_1519_ _0538_ _0542_ _0561_ _0562_ vdd vss gf180mcu_fd_sc_mcu7t5v0__oai21_1
XANTENNA_input29_I dbb[6] vdd vss gf180mcu_fd_sc_mcu7t5v0__antenna
XFILLER_28_513 vdd vss gf180mcu_fd_sc_mcu7t5v0__fill_2
XFILLER_36_590 vdd vss gf180mcu_fd_sc_mcu7t5v0__fillcap_8
XFILLER_11_413 vdd vss gf180mcu_fd_sc_mcu7t5v0__fillcap_4
XFILLER_7_428 vdd vss gf180mcu_fd_sc_mcu7t5v0__fill_1
XFILLER_23_65 vdd vss gf180mcu_fd_sc_mcu7t5v0__fill_1
XFILLER_23_98 vdd vss gf180mcu_fd_sc_mcu7t5v0__fill_1
XANTENNA_output97_I net97 vdd vss gf180mcu_fd_sc_mcu7t5v0__antenna
XFILLER_3_2 vdd vss gf180mcu_fd_sc_mcu7t5v0__fillcap_4
XFILLER_0_69 vdd vss gf180mcu_fd_sc_mcu7t5v0__fill_1
XFILLER_34_505 vdd vss gf180mcu_fd_sc_mcu7t5v0__fill_1
XFILLER_14_240 vdd vss gf180mcu_fd_sc_mcu7t5v0__fill_2
XFILLER_9_34 vdd vss gf180mcu_fd_sc_mcu7t5v0__fill_2
XANTENNA__2064__A2 net22 vdd vss gf180mcu_fd_sc_mcu7t5v0__antenna
XFILLER_42_593 vdd vss gf180mcu_fd_sc_mcu7t5v0__fill_2
XFILLER_14_295 vdd vss gf180mcu_fd_sc_mcu7t5v0__fill_2
X_1870_ _1127_ net1 _0814_ _0906_ _0908_ vdd vss gf180mcu_fd_sc_mcu7t5v0__nand4_2
XANTENNA__1683__I _0723_ vdd vss gf180mcu_fd_sc_mcu7t5v0__antenna
X_2422_ _0046_ _0055_ _0105_ _0107_ vdd vss gf180mcu_fd_sc_mcu7t5v0__oai21_1
XFILLER_36_2 vdd vss gf180mcu_fd_sc_mcu7t5v0__fill_1
X_2353_ _1350_ _1351_ _0033_ vdd vss gf180mcu_fd_sc_mcu7t5v0__nand2_1
XANTENNA__1878__A2 _0632_ vdd vss gf180mcu_fd_sc_mcu7t5v0__antenna
X_2284_ _1270_ _1343_ _1345_ vdd vss gf180mcu_fd_sc_mcu7t5v0__nand2_1
XFILLER_37_354 vdd vss gf180mcu_fd_sc_mcu7t5v0__fill_1
XFILLER_25_505 vdd vss gf180mcu_fd_sc_mcu7t5v0__fill_2
XANTENNA__1802__A2 _0719_ vdd vss gf180mcu_fd_sc_mcu7t5v0__antenna
XFILLER_20_265 vdd vss gf180mcu_fd_sc_mcu7t5v0__fill_2
XFILLER_20_276 vdd vss gf180mcu_fd_sc_mcu7t5v0__fillcap_8
X_1999_ _0916_ _1035_ _1036_ _0953_ _1037_ vdd vss gf180mcu_fd_sc_mcu7t5v0__oai22_1
XFILLER_4_409 vdd vss gf180mcu_fd_sc_mcu7t5v0__fill_2
XANTENNA__1869__A2 _0814_ vdd vss gf180mcu_fd_sc_mcu7t5v0__antenna
XFILLER_28_321 vdd vss gf180mcu_fd_sc_mcu7t5v0__fillcap_4
XFILLER_28_354 vdd vss gf180mcu_fd_sc_mcu7t5v0__fill_2
XFILLER_16_527 vdd vss gf180mcu_fd_sc_mcu7t5v0__fill_2
XFILLER_28_398 vdd vss gf180mcu_fd_sc_mcu7t5v0__fillcap_32
XANTENNA__2046__A2 _1087_ vdd vss gf180mcu_fd_sc_mcu7t5v0__antenna
XFILLER_11_232 vdd vss gf180mcu_fd_sc_mcu7t5v0__fill_1
XFILLER_11_265 vdd vss gf180mcu_fd_sc_mcu7t5v0__fillcap_16
XFILLER_7_225 vdd vss gf180mcu_fd_sc_mcu7t5v0__fillcap_4
XFILLER_3_442 vdd vss gf180mcu_fd_sc_mcu7t5v0__fill_2
XTAP_508 vdd vss gf180mcu_fd_sc_mcu7t5v0__filltie
XFILLER_38_118 vdd vss gf180mcu_fd_sc_mcu7t5v0__fillcap_16
XFILLER_19_310 vdd vss gf180mcu_fd_sc_mcu7t5v0__fill_2
XFILLER_19_354 vdd vss gf180mcu_fd_sc_mcu7t5v0__fill_1
XFILLER_19_398 vdd vss gf180mcu_fd_sc_mcu7t5v0__fillcap_4
XFILLER_34_324 vdd vss gf180mcu_fd_sc_mcu7t5v0__fillcap_32
XANTENNA__1678__I _0661_ vdd vss gf180mcu_fd_sc_mcu7t5v0__antenna
XFILLER_15_560 vdd vss gf180mcu_fd_sc_mcu7t5v0__fill_2
XANTENNA__2037__A2 _1078_ vdd vss gf180mcu_fd_sc_mcu7t5v0__antenna
XFILLER_15_593 vdd vss gf180mcu_fd_sc_mcu7t5v0__fillcap_8
X_1922_ _0941_ _0958_ _0959_ vdd vss gf180mcu_fd_sc_mcu7t5v0__xnor2_1
XFILLER_30_530 vdd vss gf180mcu_fd_sc_mcu7t5v0__fill_2
X_1853_ _1160_ net3 _0891_ vdd vss gf180mcu_fd_sc_mcu7t5v0__nand2_1
XFILLER_30_596 vdd vss gf180mcu_fd_sc_mcu7t5v0__fill_1
XANTENNA__1548__A1 _0565_ vdd vss gf180mcu_fd_sc_mcu7t5v0__antenna
X_1784_ _0812_ _0822_ _0823_ vdd vss gf180mcu_fd_sc_mcu7t5v0__xor2_1
X_2405_ _0087_ _0088_ _0089_ vdd vss gf180mcu_fd_sc_mcu7t5v0__and2_1
X_2336_ _1318_ _1328_ _0014_ _0015_ vdd vss gf180mcu_fd_sc_mcu7t5v0__oai21_1
X_2267_ _1325_ _1326_ _1253_ _1327_ vdd vss gf180mcu_fd_sc_mcu7t5v0__and3_1
XFILLER_37_140 vdd vss gf180mcu_fd_sc_mcu7t5v0__fill_2
XFILLER_25_313 vdd vss gf180mcu_fd_sc_mcu7t5v0__fill_2
X_2198_ _1176_ _1252_ _1253_ vdd vss gf180mcu_fd_sc_mcu7t5v0__xnor2_1
XFILLER_25_357 vdd vss gf180mcu_fd_sc_mcu7t5v0__fill_1
XANTENNA__2028__A2 net5 vdd vss gf180mcu_fd_sc_mcu7t5v0__antenna
XFILLER_40_338 vdd vss gf180mcu_fd_sc_mcu7t5v0__fill_1
XFILLER_21_563 vdd vss gf180mcu_fd_sc_mcu7t5v0__fill_2
XFILLER_21_596 vdd vss gf180mcu_fd_sc_mcu7t5v0__fillcap_4
XFILLER_4_217 vdd vss gf180mcu_fd_sc_mcu7t5v0__fill_1
XANTENNA__2751__A3 _0349_ vdd vss gf180mcu_fd_sc_mcu7t5v0__antenna
XANTENNA__1711__A1 _1018_ vdd vss gf180mcu_fd_sc_mcu7t5v0__antenna
XANTENNA__1711__B2 net8 vdd vss gf180mcu_fd_sc_mcu7t5v0__antenna
XFILLER_28_140 vdd vss gf180mcu_fd_sc_mcu7t5v0__fill_2
XFILLER_29_97 vdd vss gf180mcu_fd_sc_mcu7t5v0__fill_2
XFILLER_29_641 vdd vss gf180mcu_fd_sc_mcu7t5v0__fillcap_4
XFILLER_28_173 vdd vss gf180mcu_fd_sc_mcu7t5v0__fillcap_4
XFILLER_29_685 vdd vss gf180mcu_fd_sc_mcu7t5v0__fill_2
XFILLER_8_512 vdd vss gf180mcu_fd_sc_mcu7t5v0__fill_2
XFILLER_8_534 vdd vss gf180mcu_fd_sc_mcu7t5v0__fillcap_8
XFILLER_8_567 vdd vss gf180mcu_fd_sc_mcu7t5v0__fill_1