* NGSPICE file created from WavePWM.ext - technology: gf180mcuC

* Black-box entry subcircuit for gf180mcu_fd_sc_mcu7t5v0__filltie abstract view
.subckt gf180mcu_fd_sc_mcu7t5v0__filltie VDD VSS
.ends

* Black-box entry subcircuit for gf180mcu_fd_sc_mcu7t5v0__fill_2 abstract view
.subckt gf180mcu_fd_sc_mcu7t5v0__fill_2 VDD VSS
.ends

* Black-box entry subcircuit for gf180mcu_fd_sc_mcu7t5v0__clkbuf_1 abstract view
.subckt gf180mcu_fd_sc_mcu7t5v0__clkbuf_1 I Z VDD VSS
.ends

* Black-box entry subcircuit for gf180mcu_fd_sc_mcu7t5v0__fill_1 abstract view
.subckt gf180mcu_fd_sc_mcu7t5v0__fill_1 VDD VSS
.ends

* Black-box entry subcircuit for gf180mcu_fd_sc_mcu7t5v0__aoi21_1 abstract view
.subckt gf180mcu_fd_sc_mcu7t5v0__aoi21_1 A1 A2 B ZN VDD VSS
.ends

* Black-box entry subcircuit for gf180mcu_fd_sc_mcu7t5v0__fillcap_4 abstract view
.subckt gf180mcu_fd_sc_mcu7t5v0__fillcap_4 VDD VSS
.ends

* Black-box entry subcircuit for gf180mcu_fd_sc_mcu7t5v0__nand2_2 abstract view
.subckt gf180mcu_fd_sc_mcu7t5v0__nand2_2 A1 A2 ZN VDD VSS
.ends

* Black-box entry subcircuit for gf180mcu_fd_sc_mcu7t5v0__aoi221_4 abstract view
.subckt gf180mcu_fd_sc_mcu7t5v0__aoi221_4 A1 A2 B1 B2 C ZN VDD VSS
.ends

* Black-box entry subcircuit for gf180mcu_fd_sc_mcu7t5v0__aoi22_1 abstract view
.subckt gf180mcu_fd_sc_mcu7t5v0__aoi22_1 A1 A2 B1 B2 ZN VDD VSS
.ends

* Black-box entry subcircuit for gf180mcu_fd_sc_mcu7t5v0__antenna abstract view
.subckt gf180mcu_fd_sc_mcu7t5v0__antenna I VDD VSS
.ends

* Black-box entry subcircuit for gf180mcu_fd_sc_mcu7t5v0__fillcap_8 abstract view
.subckt gf180mcu_fd_sc_mcu7t5v0__fillcap_8 VDD VSS
.ends

* Black-box entry subcircuit for gf180mcu_fd_sc_mcu7t5v0__nand2_1 abstract view
.subckt gf180mcu_fd_sc_mcu7t5v0__nand2_1 A1 A2 ZN VDD VSS
.ends

* Black-box entry subcircuit for gf180mcu_fd_sc_mcu7t5v0__xor2_1 abstract view
.subckt gf180mcu_fd_sc_mcu7t5v0__xor2_1 A1 A2 Z VDD VSS
.ends

* Black-box entry subcircuit for gf180mcu_fd_sc_mcu7t5v0__buf_3 abstract view
.subckt gf180mcu_fd_sc_mcu7t5v0__buf_3 I Z VDD VSS
.ends

* Black-box entry subcircuit for gf180mcu_fd_sc_mcu7t5v0__aoi21_2 abstract view
.subckt gf180mcu_fd_sc_mcu7t5v0__aoi21_2 A1 A2 B ZN VDD VSS
.ends

* Black-box entry subcircuit for gf180mcu_fd_sc_mcu7t5v0__dffrnq_1 abstract view
.subckt gf180mcu_fd_sc_mcu7t5v0__dffrnq_1 D RN CLK Q VDD VSS
.ends

* Black-box entry subcircuit for gf180mcu_fd_sc_mcu7t5v0__and3_1 abstract view
.subckt gf180mcu_fd_sc_mcu7t5v0__and3_1 A1 A2 A3 Z VDD VSS
.ends

* Black-box entry subcircuit for gf180mcu_fd_sc_mcu7t5v0__oai22_2 abstract view
.subckt gf180mcu_fd_sc_mcu7t5v0__oai22_2 A1 A2 B1 B2 ZN VDD VSS
.ends

* Black-box entry subcircuit for gf180mcu_fd_sc_mcu7t5v0__oai21_1 abstract view
.subckt gf180mcu_fd_sc_mcu7t5v0__oai21_1 A1 A2 B ZN VDD VSS
.ends

* Black-box entry subcircuit for gf180mcu_fd_sc_mcu7t5v0__and2_1 abstract view
.subckt gf180mcu_fd_sc_mcu7t5v0__and2_1 A1 A2 Z VDD VSS
.ends

* Black-box entry subcircuit for gf180mcu_fd_sc_mcu7t5v0__nor2_1 abstract view
.subckt gf180mcu_fd_sc_mcu7t5v0__nor2_1 A1 A2 ZN VDD VSS
.ends

* Black-box entry subcircuit for gf180mcu_fd_sc_mcu7t5v0__fillcap_16 abstract view
.subckt gf180mcu_fd_sc_mcu7t5v0__fillcap_16 VDD VSS
.ends

* Black-box entry subcircuit for gf180mcu_fd_sc_mcu7t5v0__oai221_1 abstract view
.subckt gf180mcu_fd_sc_mcu7t5v0__oai221_1 A1 A2 B1 B2 C ZN VDD VSS
.ends

* Black-box entry subcircuit for gf180mcu_fd_sc_mcu7t5v0__oai211_1 abstract view
.subckt gf180mcu_fd_sc_mcu7t5v0__oai211_1 A1 A2 B C ZN VDD VSS
.ends

* Black-box entry subcircuit for gf180mcu_fd_sc_mcu7t5v0__xnor2_1 abstract view
.subckt gf180mcu_fd_sc_mcu7t5v0__xnor2_1 A1 A2 ZN VDD VSS
.ends

* Black-box entry subcircuit for gf180mcu_fd_sc_mcu7t5v0__nand3_1 abstract view
.subckt gf180mcu_fd_sc_mcu7t5v0__nand3_1 A1 A2 A3 ZN VDD VSS
.ends

* Black-box entry subcircuit for gf180mcu_fd_sc_mcu7t5v0__clkbuf_4 abstract view
.subckt gf180mcu_fd_sc_mcu7t5v0__clkbuf_4 I Z VDD VSS
.ends

* Black-box entry subcircuit for gf180mcu_fd_sc_mcu7t5v0__xor2_2 abstract view
.subckt gf180mcu_fd_sc_mcu7t5v0__xor2_2 A1 A2 Z VDD VSS
.ends

* Black-box entry subcircuit for gf180mcu_fd_sc_mcu7t5v0__oai32_2 abstract view
.subckt gf180mcu_fd_sc_mcu7t5v0__oai32_2 A1 A2 A3 B1 B2 ZN VDD VSS
.ends

* Black-box entry subcircuit for gf180mcu_fd_sc_mcu7t5v0__clkinv_1 abstract view
.subckt gf180mcu_fd_sc_mcu7t5v0__clkinv_1 I ZN VDD VSS
.ends

* Black-box entry subcircuit for gf180mcu_fd_sc_mcu7t5v0__or2_4 abstract view
.subckt gf180mcu_fd_sc_mcu7t5v0__or2_4 A1 A2 Z VDD VSS
.ends

* Black-box entry subcircuit for gf180mcu_fd_sc_mcu7t5v0__clkbuf_3 abstract view
.subckt gf180mcu_fd_sc_mcu7t5v0__clkbuf_3 I Z VDD VSS
.ends

* Black-box entry subcircuit for gf180mcu_fd_sc_mcu7t5v0__xor3_1 abstract view
.subckt gf180mcu_fd_sc_mcu7t5v0__xor3_1 A1 A2 A3 Z VDD VSS
.ends

* Black-box entry subcircuit for gf180mcu_fd_sc_mcu7t5v0__xnor2_4 abstract view
.subckt gf180mcu_fd_sc_mcu7t5v0__xnor2_4 A1 A2 ZN VDD VSS
.ends

* Black-box entry subcircuit for gf180mcu_fd_sc_mcu7t5v0__nor3_1 abstract view
.subckt gf180mcu_fd_sc_mcu7t5v0__nor3_1 A1 A2 A3 ZN VDD VSS
.ends

* Black-box entry subcircuit for gf180mcu_fd_sc_mcu7t5v0__nor2_2 abstract view
.subckt gf180mcu_fd_sc_mcu7t5v0__nor2_2 A1 A2 ZN VDD VSS
.ends

* Black-box entry subcircuit for gf180mcu_fd_sc_mcu7t5v0__xnor2_2 abstract view
.subckt gf180mcu_fd_sc_mcu7t5v0__xnor2_2 A1 A2 ZN VDD VSS
.ends

* Black-box entry subcircuit for gf180mcu_fd_sc_mcu7t5v0__or3_1 abstract view
.subckt gf180mcu_fd_sc_mcu7t5v0__or3_1 A1 A2 A3 Z VDD VSS
.ends

* Black-box entry subcircuit for gf180mcu_fd_sc_mcu7t5v0__fillcap_32 abstract view
.subckt gf180mcu_fd_sc_mcu7t5v0__fillcap_32 VDD VSS
.ends

* Black-box entry subcircuit for gf180mcu_fd_sc_mcu7t5v0__mux2_2 abstract view
.subckt gf180mcu_fd_sc_mcu7t5v0__mux2_2 I0 I1 S Z VDD VSS
.ends

* Black-box entry subcircuit for gf180mcu_fd_sc_mcu7t5v0__nor3_2 abstract view
.subckt gf180mcu_fd_sc_mcu7t5v0__nor3_2 A1 A2 A3 ZN VDD VSS
.ends

* Black-box entry subcircuit for gf180mcu_fd_sc_mcu7t5v0__aoi221_1 abstract view
.subckt gf180mcu_fd_sc_mcu7t5v0__aoi221_1 A1 A2 B1 B2 C ZN VDD VSS
.ends

* Black-box entry subcircuit for gf180mcu_fd_sc_mcu7t5v0__or2_1 abstract view
.subckt gf180mcu_fd_sc_mcu7t5v0__or2_1 A1 A2 Z VDD VSS
.ends

* Black-box entry subcircuit for gf180mcu_fd_sc_mcu7t5v0__aoi211_4 abstract view
.subckt gf180mcu_fd_sc_mcu7t5v0__aoi211_4 A1 A2 B C ZN VDD VSS
.ends

* Black-box entry subcircuit for gf180mcu_fd_sc_mcu7t5v0__buf_2 abstract view
.subckt gf180mcu_fd_sc_mcu7t5v0__buf_2 I Z VDD VSS
.ends

* Black-box entry subcircuit for gf180mcu_fd_sc_mcu7t5v0__oai22_1 abstract view
.subckt gf180mcu_fd_sc_mcu7t5v0__oai22_1 A1 A2 B1 B2 ZN VDD VSS
.ends

* Black-box entry subcircuit for gf180mcu_fd_sc_mcu7t5v0__oai21_2 abstract view
.subckt gf180mcu_fd_sc_mcu7t5v0__oai21_2 A1 A2 B ZN VDD VSS
.ends

* Black-box entry subcircuit for gf180mcu_fd_sc_mcu7t5v0__aoi211_1 abstract view
.subckt gf180mcu_fd_sc_mcu7t5v0__aoi211_1 A1 A2 B C ZN VDD VSS
.ends

* Black-box entry subcircuit for gf180mcu_fd_sc_mcu7t5v0__xnor3_1 abstract view
.subckt gf180mcu_fd_sc_mcu7t5v0__xnor3_1 A1 A2 A3 ZN VDD VSS
.ends

* Black-box entry subcircuit for gf180mcu_fd_sc_mcu7t5v0__oai31_2 abstract view
.subckt gf180mcu_fd_sc_mcu7t5v0__oai31_2 A1 A2 A3 B ZN VDD VSS
.ends

* Black-box entry subcircuit for gf180mcu_fd_sc_mcu7t5v0__nand2_4 abstract view
.subckt gf180mcu_fd_sc_mcu7t5v0__nand2_4 A1 A2 ZN VDD VSS
.ends

* Black-box entry subcircuit for gf180mcu_fd_sc_mcu7t5v0__endcap abstract view
.subckt gf180mcu_fd_sc_mcu7t5v0__endcap VDD VSS
.ends

* Black-box entry subcircuit for gf180mcu_fd_sc_mcu7t5v0__xor2_4 abstract view
.subckt gf180mcu_fd_sc_mcu7t5v0__xor2_4 A1 A2 Z VDD VSS
.ends

* Black-box entry subcircuit for gf180mcu_fd_sc_mcu7t5v0__dffrnq_2 abstract view
.subckt gf180mcu_fd_sc_mcu7t5v0__dffrnq_2 D RN CLK Q VDD VSS
.ends

* Black-box entry subcircuit for gf180mcu_fd_sc_mcu7t5v0__or4_2 abstract view
.subckt gf180mcu_fd_sc_mcu7t5v0__or4_2 A1 A2 A3 A4 Z VDD VSS
.ends

* Black-box entry subcircuit for gf180mcu_fd_sc_mcu7t5v0__and2_4 abstract view
.subckt gf180mcu_fd_sc_mcu7t5v0__and2_4 A1 A2 Z VDD VSS
.ends

* Black-box entry subcircuit for gf180mcu_fd_sc_mcu7t5v0__aoi211_2 abstract view
.subckt gf180mcu_fd_sc_mcu7t5v0__aoi211_2 A1 A2 B C ZN VDD VSS
.ends

* Black-box entry subcircuit for gf180mcu_fd_sc_mcu7t5v0__nor4_1 abstract view
.subckt gf180mcu_fd_sc_mcu7t5v0__nor4_1 A1 A2 A3 A4 ZN VDD VSS
.ends

* Black-box entry subcircuit for gf180mcu_fd_sc_mcu7t5v0__nor2_4 abstract view
.subckt gf180mcu_fd_sc_mcu7t5v0__nor2_4 A1 A2 ZN VDD VSS
.ends

* Black-box entry subcircuit for gf180mcu_fd_sc_mcu7t5v0__nor4_4 abstract view
.subckt gf180mcu_fd_sc_mcu7t5v0__nor4_4 A1 A2 A3 A4 ZN VDD VSS
.ends

* Black-box entry subcircuit for gf180mcu_fd_sc_mcu7t5v0__nand4_2 abstract view
.subckt gf180mcu_fd_sc_mcu7t5v0__nand4_2 A1 A2 A3 A4 ZN VDD VSS
.ends

* Black-box entry subcircuit for gf180mcu_fd_sc_mcu7t5v0__oai32_1 abstract view
.subckt gf180mcu_fd_sc_mcu7t5v0__oai32_1 A1 A2 A3 B1 B2 ZN VDD VSS
.ends

* Black-box entry subcircuit for gf180mcu_fd_sc_mcu7t5v0__oai211_2 abstract view
.subckt gf180mcu_fd_sc_mcu7t5v0__oai211_2 A1 A2 B C ZN VDD VSS
.ends

* Black-box entry subcircuit for gf180mcu_fd_sc_mcu7t5v0__and4_1 abstract view
.subckt gf180mcu_fd_sc_mcu7t5v0__and4_1 A1 A2 A3 A4 Z VDD VSS
.ends

* Black-box entry subcircuit for gf180mcu_fd_sc_mcu7t5v0__aoi21_4 abstract view
.subckt gf180mcu_fd_sc_mcu7t5v0__aoi21_4 A1 A2 B ZN VDD VSS
.ends

* Black-box entry subcircuit for gf180mcu_fd_sc_mcu7t5v0__aoi221_2 abstract view
.subckt gf180mcu_fd_sc_mcu7t5v0__aoi221_2 A1 A2 B1 B2 C ZN VDD VSS
.ends

* Black-box entry subcircuit for gf180mcu_fd_sc_mcu7t5v0__clkbuf_16 abstract view
.subckt gf180mcu_fd_sc_mcu7t5v0__clkbuf_16 I Z VDD VSS
.ends

* Black-box entry subcircuit for gf180mcu_fd_sc_mcu7t5v0__or3_2 abstract view
.subckt gf180mcu_fd_sc_mcu7t5v0__or3_2 A1 A2 A3 Z VDD VSS
.ends

* Black-box entry subcircuit for gf180mcu_fd_sc_mcu7t5v0__and2_2 abstract view
.subckt gf180mcu_fd_sc_mcu7t5v0__and2_2 A1 A2 Z VDD VSS
.ends

* Black-box entry subcircuit for gf180mcu_fd_sc_mcu7t5v0__fillcap_64 abstract view
.subckt gf180mcu_fd_sc_mcu7t5v0__fillcap_64 VDD VSS
.ends

* Black-box entry subcircuit for gf180mcu_fd_sc_mcu7t5v0__aoi22_4 abstract view
.subckt gf180mcu_fd_sc_mcu7t5v0__aoi22_4 A1 A2 B1 B2 ZN VDD VSS
.ends

* Black-box entry subcircuit for gf180mcu_fd_sc_mcu7t5v0__oai31_1 abstract view
.subckt gf180mcu_fd_sc_mcu7t5v0__oai31_1 A1 A2 A3 B ZN VDD VSS
.ends

* Black-box entry subcircuit for gf180mcu_fd_sc_mcu7t5v0__clkinv_4 abstract view
.subckt gf180mcu_fd_sc_mcu7t5v0__clkinv_4 I ZN VDD VSS
.ends

* Black-box entry subcircuit for gf180mcu_fd_sc_mcu7t5v0__nor3_4 abstract view
.subckt gf180mcu_fd_sc_mcu7t5v0__nor3_4 A1 A2 A3 ZN VDD VSS
.ends

* Black-box entry subcircuit for gf180mcu_fd_sc_mcu7t5v0__nand3_2 abstract view
.subckt gf180mcu_fd_sc_mcu7t5v0__nand3_2 A1 A2 A3 ZN VDD VSS
.ends

* Black-box entry subcircuit for gf180mcu_fd_sc_mcu7t5v0__aoi22_2 abstract view
.subckt gf180mcu_fd_sc_mcu7t5v0__aoi22_2 A1 A2 B1 B2 ZN VDD VSS
.ends

* Black-box entry subcircuit for gf180mcu_fd_sc_mcu7t5v0__oai222_4 abstract view
.subckt gf180mcu_fd_sc_mcu7t5v0__oai222_4 A1 A2 B1 B2 C1 C2 ZN VDD VSS
.ends

* Black-box entry subcircuit for gf180mcu_fd_sc_mcu7t5v0__buf_4 abstract view
.subckt gf180mcu_fd_sc_mcu7t5v0__buf_4 I Z VDD VSS
.ends

* Black-box entry subcircuit for gf180mcu_fd_sc_mcu7t5v0__aoi222_4 abstract view
.subckt gf180mcu_fd_sc_mcu7t5v0__aoi222_4 A1 A2 B1 B2 C1 C2 ZN VDD VSS
.ends

* Black-box entry subcircuit for gf180mcu_fd_sc_mcu7t5v0__clkinv_2 abstract view
.subckt gf180mcu_fd_sc_mcu7t5v0__clkinv_2 I ZN VDD VSS
.ends

* Black-box entry subcircuit for gf180mcu_fd_sc_mcu7t5v0__buf_1 abstract view
.subckt gf180mcu_fd_sc_mcu7t5v0__buf_1 I Z VDD VSS
.ends

* Black-box entry subcircuit for gf180mcu_fd_sc_mcu7t5v0__clkbuf_2 abstract view
.subckt gf180mcu_fd_sc_mcu7t5v0__clkbuf_2 I Z VDD VSS
.ends

* Black-box entry subcircuit for gf180mcu_fd_sc_mcu7t5v0__clkbuf_8 abstract view
.subckt gf180mcu_fd_sc_mcu7t5v0__clkbuf_8 I Z VDD VSS
.ends

* Black-box entry subcircuit for gf180mcu_fd_sc_mcu7t5v0__oai21_4 abstract view
.subckt gf180mcu_fd_sc_mcu7t5v0__oai21_4 A1 A2 B ZN VDD VSS
.ends

* Black-box entry subcircuit for gf180mcu_fd_sc_mcu7t5v0__oai211_4 abstract view
.subckt gf180mcu_fd_sc_mcu7t5v0__oai211_4 A1 A2 B C ZN VDD VSS
.ends

* Black-box entry subcircuit for gf180mcu_fd_sc_mcu7t5v0__xnor3_2 abstract view
.subckt gf180mcu_fd_sc_mcu7t5v0__xnor3_2 A1 A2 A3 ZN VDD VSS
.ends

* Black-box entry subcircuit for gf180mcu_fd_sc_mcu7t5v0__aoi222_2 abstract view
.subckt gf180mcu_fd_sc_mcu7t5v0__aoi222_2 A1 A2 B1 B2 C1 C2 ZN VDD VSS
.ends

* Black-box entry subcircuit for gf180mcu_fd_sc_mcu7t5v0__dlyb_1 abstract view
.subckt gf180mcu_fd_sc_mcu7t5v0__dlyb_1 I Z VDD VSS
.ends

* Black-box entry subcircuit for gf180mcu_fd_sc_mcu7t5v0__oai221_2 abstract view
.subckt gf180mcu_fd_sc_mcu7t5v0__oai221_2 A1 A2 B1 B2 C ZN VDD VSS
.ends

* Black-box entry subcircuit for gf180mcu_fd_sc_mcu7t5v0__inv_1 abstract view
.subckt gf180mcu_fd_sc_mcu7t5v0__inv_1 I ZN VDD VSS
.ends

* Black-box entry subcircuit for gf180mcu_fd_sc_mcu7t5v0__or2_2 abstract view
.subckt gf180mcu_fd_sc_mcu7t5v0__or2_2 A1 A2 Z VDD VSS
.ends

* Black-box entry subcircuit for gf180mcu_fd_sc_mcu7t5v0__nand3_4 abstract view
.subckt gf180mcu_fd_sc_mcu7t5v0__nand3_4 A1 A2 A3 ZN VDD VSS
.ends

* Black-box entry subcircuit for gf180mcu_fd_sc_mcu7t5v0__nor4_2 abstract view
.subckt gf180mcu_fd_sc_mcu7t5v0__nor4_2 A1 A2 A3 A4 ZN VDD VSS
.ends

* Black-box entry subcircuit for gf180mcu_fd_sc_mcu7t5v0__or4_1 abstract view
.subckt gf180mcu_fd_sc_mcu7t5v0__or4_1 A1 A2 A3 A4 Z VDD VSS
.ends

* Black-box entry subcircuit for gf180mcu_fd_sc_mcu7t5v0__xor3_2 abstract view
.subckt gf180mcu_fd_sc_mcu7t5v0__xor3_2 A1 A2 A3 Z VDD VSS
.ends

* Black-box entry subcircuit for gf180mcu_fd_sc_mcu7t5v0__nand4_1 abstract view
.subckt gf180mcu_fd_sc_mcu7t5v0__nand4_1 A1 A2 A3 A4 ZN VDD VSS
.ends

.subckt WavePWM clk divSel[0] divSel[1] divSel[2] divSel[3] enable qcomplex qcos qsin
+ rst vdd vss
XTAP_199 vdd vss gf180mcu_fd_sc_mcu7t5v0__filltie
XTAP_188 vdd vss gf180mcu_fd_sc_mcu7t5v0__filltie
XTAP_177 vdd vss gf180mcu_fd_sc_mcu7t5v0__filltie
XFILLER_39_222 vdd vss gf180mcu_fd_sc_mcu7t5v0__fill_2
X_3155_ _0706_ _0009_ vdd vss gf180mcu_fd_sc_mcu7t5v0__clkbuf_1
XFILLER_39_266 vdd vss gf180mcu_fd_sc_mcu7t5v0__fill_1
XFILLER_54_236 vdd vss gf180mcu_fd_sc_mcu7t5v0__fill_1
XFILLER_54_225 vdd vss gf180mcu_fd_sc_mcu7t5v0__fill_1
X_3086_ _0634_ _0637_ _0642_ _0643_ vdd vss gf180mcu_fd_sc_mcu7t5v0__aoi21_1
XFILLER_27_428 vdd vss gf180mcu_fd_sc_mcu7t5v0__fillcap_4
X_2106_ _0941_ _0942_ _1154_ vdd vss gf180mcu_fd_sc_mcu7t5v0__nand2_2
XFILLER_54_247 vdd vss gf180mcu_fd_sc_mcu7t5v0__fill_1
X_2037_ _1085_ _0757_ _0854_ _0855_ _0889_ _1086_ vdd vss gf180mcu_fd_sc_mcu7t5v0__aoi221_4
XFILLER_35_450 vdd vss gf180mcu_fd_sc_mcu7t5v0__fillcap_4
XFILLER_35_472 vdd vss gf180mcu_fd_sc_mcu7t5v0__fillcap_4
XFILLER_52_29 vdd vss gf180mcu_fd_sc_mcu7t5v0__fill_2
XFILLER_52_18 vdd vss gf180mcu_fd_sc_mcu7t5v0__fill_2
XFILLER_10_317 vdd vss gf180mcu_fd_sc_mcu7t5v0__fill_2
XFILLER_22_155 vdd vss gf180mcu_fd_sc_mcu7t5v0__fill_2
X_2939_ _0479_ _0484_ _0487_ _0946_ _0488_ vdd vss gf180mcu_fd_sc_mcu7t5v0__aoi22_1
XFILLER_10_339 vdd vss gf180mcu_fd_sc_mcu7t5v0__fillcap_4
XFILLER_22_199 vdd vss gf180mcu_fd_sc_mcu7t5v0__fill_2
XANTENNA__2954__A1 freeRunCntr\[4\] vdd vss gf180mcu_fd_sc_mcu7t5v0__antenna
XANTENNA__1757__A2 _0631_ vdd vss gf180mcu_fd_sc_mcu7t5v0__antenna
XANTENNA__2706__A1 _1265_ vdd vss gf180mcu_fd_sc_mcu7t5v0__antenna
XANTENNA__1693__A1 _1565_ vdd vss gf180mcu_fd_sc_mcu7t5v0__antenna
XFILLER_18_428 vdd vss gf180mcu_fd_sc_mcu7t5v0__fillcap_4
XFILLER_26_30 vdd vss gf180mcu_fd_sc_mcu7t5v0__fill_2
XFILLER_33_409 vdd vss gf180mcu_fd_sc_mcu7t5v0__fillcap_4
XFILLER_41_420 vdd vss gf180mcu_fd_sc_mcu7t5v0__fillcap_4
XFILLER_13_144 vdd vss gf180mcu_fd_sc_mcu7t5v0__fillcap_8
XFILLER_13_199 vdd vss gf180mcu_fd_sc_mcu7t5v0__fillcap_4
XANTENNA__3198__A1 _1144_ vdd vss gf180mcu_fd_sc_mcu7t5v0__antenna
XFILLER_41_486 vdd vss gf180mcu_fd_sc_mcu7t5v0__fillcap_4
XANTENNA__1748__A2 _0797_ vdd vss gf180mcu_fd_sc_mcu7t5v0__antenna
XANTENNA__2945__A1 freeRunCntr\[2\] vdd vss gf180mcu_fd_sc_mcu7t5v0__antenna
XFILLER_9_159 vdd vss gf180mcu_fd_sc_mcu7t5v0__fill_2
XFILLER_5_354 vdd vss gf180mcu_fd_sc_mcu7t5v0__fill_1
XANTENNA__2103__I _1150_ vdd vss gf180mcu_fd_sc_mcu7t5v0__antenna
XANTENNA__2173__A2 _1142_ vdd vss gf180mcu_fd_sc_mcu7t5v0__antenna
XFILLER_68_317 vdd vss gf180mcu_fd_sc_mcu7t5v0__fill_2
XFILLER_3_34 vdd vss gf180mcu_fd_sc_mcu7t5v0__fill_2
XFILLER_67_70 vdd vss gf180mcu_fd_sc_mcu7t5v0__fill_1
XFILLER_64_512 vdd vss gf180mcu_fd_sc_mcu7t5v0__fill_1
XFILLER_36_236 vdd vss gf180mcu_fd_sc_mcu7t5v0__fill_1
XFILLER_36_247 vdd vss gf180mcu_fd_sc_mcu7t5v0__fill_1
XFILLER_17_472 vdd vss gf180mcu_fd_sc_mcu7t5v0__fillcap_4
XFILLER_32_420 vdd vss gf180mcu_fd_sc_mcu7t5v0__fill_2
XANTENNA__1987__A2 _0915_ vdd vss gf180mcu_fd_sc_mcu7t5v0__antenna
XANTENNA__3189__A1 _1140_ vdd vss gf180mcu_fd_sc_mcu7t5v0__antenna
XANTENNA__2936__A1 _1533_ vdd vss gf180mcu_fd_sc_mcu7t5v0__antenna
XANTENNA__1739__A2 _0065_ vdd vss gf180mcu_fd_sc_mcu7t5v0__antenna
X_2724_ _1120_ _0231_ _0251_ vdd vss gf180mcu_fd_sc_mcu7t5v0__nand2_1
XFILLER_8_170 vdd vss gf180mcu_fd_sc_mcu7t5v0__fillcap_4
X_2655_ _0149_ _0150_ _0176_ vdd vss gf180mcu_fd_sc_mcu7t5v0__xor2_1
X_1606_ _1389_ _1400_ vdd vss gf180mcu_fd_sc_mcu7t5v0__buf_3
X_2586_ _0080_ _0097_ _0099_ _0100_ vdd vss gf180mcu_fd_sc_mcu7t5v0__aoi21_2
XANTENNA__3113__A1 _0653_ vdd vss gf180mcu_fd_sc_mcu7t5v0__antenna
XFILLER_67_350 vdd vss gf180mcu_fd_sc_mcu7t5v0__fillcap_4
X_3207_ _0029_ net10 clknet_2_2__leaf_clk freeRunCntr\[6\] vdd vss gf180mcu_fd_sc_mcu7t5v0__dffrnq_1
XFILLER_67_372 vdd vss gf180mcu_fd_sc_mcu7t5v0__fill_2
XFILLER_55_512 vdd vss gf180mcu_fd_sc_mcu7t5v0__fill_1
X_3138_ _0692_ _0005_ vdd vss gf180mcu_fd_sc_mcu7t5v0__clkbuf_1
XANTENNA__1801__B _0764_ vdd vss gf180mcu_fd_sc_mcu7t5v0__antenna
XFILLER_63_17 vdd vss gf180mcu_fd_sc_mcu7t5v0__fill_2
X_3069_ _0624_ _0593_ _0625_ _0626_ vdd vss gf180mcu_fd_sc_mcu7t5v0__and3_1
XFILLER_27_269 vdd vss gf180mcu_fd_sc_mcu7t5v0__fillcap_4
XANTENNA__1978__A2 _0894_ vdd vss gf180mcu_fd_sc_mcu7t5v0__antenna
XFILLER_50_250 vdd vss gf180mcu_fd_sc_mcu7t5v0__fill_2
XFILLER_23_486 vdd vss gf180mcu_fd_sc_mcu7t5v0__fill_2
XFILLER_12_32 vdd vss gf180mcu_fd_sc_mcu7t5v0__fill_2
XFILLER_12_87 vdd vss gf180mcu_fd_sc_mcu7t5v0__fill_2
XFILLER_2_346 vdd vss gf180mcu_fd_sc_mcu7t5v0__fillcap_4
XANTENNA__1902__A2 _0949_ vdd vss gf180mcu_fd_sc_mcu7t5v0__antenna
XANTENNA__3104__A1 _0653_ vdd vss gf180mcu_fd_sc_mcu7t5v0__antenna
XFILLER_58_372 vdd vss gf180mcu_fd_sc_mcu7t5v0__fill_1
XANTENNA__1666__A1 freeRunCntr\[16\] vdd vss gf180mcu_fd_sc_mcu7t5v0__antenna
XFILLER_46_512 vdd vss gf180mcu_fd_sc_mcu7t5v0__fill_1
XANTENNA__1666__B2 freeRunCntr\[15\] vdd vss gf180mcu_fd_sc_mcu7t5v0__antenna
XFILLER_37_62 vdd vss gf180mcu_fd_sc_mcu7t5v0__fill_2
XFILLER_37_73 vdd vss gf180mcu_fd_sc_mcu7t5v0__fill_1
XFILLER_18_269 vdd vss gf180mcu_fd_sc_mcu7t5v0__fillcap_4
XANTENNA__1969__A2 _0937_ vdd vss gf180mcu_fd_sc_mcu7t5v0__antenna
XANTENNA__2091__A1 _0417_ vdd vss gf180mcu_fd_sc_mcu7t5v0__antenna
XFILLER_14_497 vdd vss gf180mcu_fd_sc_mcu7t5v0__fill_1
XFILLER_5_140 vdd vss gf180mcu_fd_sc_mcu7t5v0__fill_2
X_2440_ _0913_ _1248_ _1252_ _0926_ _1505_ vdd vss gf180mcu_fd_sc_mcu7t5v0__oai22_2
X_2371_ _1340_ _1427_ _1428_ _1429_ vdd vss gf180mcu_fd_sc_mcu7t5v0__oai21_1
XFILLER_38_4 vdd vss gf180mcu_fd_sc_mcu7t5v0__fill_1
XFILLER_49_350 vdd vss gf180mcu_fd_sc_mcu7t5v0__fillcap_4
XFILLER_37_512 vdd vss gf180mcu_fd_sc_mcu7t5v0__fill_1
XANTENNA__2854__B1 _1304_ vdd vss gf180mcu_fd_sc_mcu7t5v0__antenna
XFILLER_49_394 vdd vss gf180mcu_fd_sc_mcu7t5v0__fill_2
XFILLER_64_364 vdd vss gf180mcu_fd_sc_mcu7t5v0__fill_2
XFILLER_24_239 vdd vss gf180mcu_fd_sc_mcu7t5v0__fill_2
XANTENNA__2082__A1 _1117_ vdd vss gf180mcu_fd_sc_mcu7t5v0__antenna
XFILLER_32_250 vdd vss gf180mcu_fd_sc_mcu7t5v0__fill_1
X_2707_ _0229_ _0232_ _0233_ vdd vss gf180mcu_fd_sc_mcu7t5v0__xor2_1
XANTENNA__2385__A2 _1171_ vdd vss gf180mcu_fd_sc_mcu7t5v0__antenna
XANTENNA__2790__C1 _0373_ vdd vss gf180mcu_fd_sc_mcu7t5v0__antenna
X_2638_ _0154_ _0156_ _0157_ vdd vss gf180mcu_fd_sc_mcu7t5v0__and2_1
XANTENNA__2688__A3 _0211_ vdd vss gf180mcu_fd_sc_mcu7t5v0__antenna
X_2569_ _0073_ _0075_ _0081_ vdd vss gf180mcu_fd_sc_mcu7t5v0__nor2_1
XFILLER_28_512 vdd vss gf180mcu_fd_sc_mcu7t5v0__fill_1
XANTENNA__1648__A1 _1400_ vdd vss gf180mcu_fd_sc_mcu7t5v0__antenna
XFILLER_55_320 vdd vss gf180mcu_fd_sc_mcu7t5v0__fillcap_4
XFILLER_55_397 vdd vss gf180mcu_fd_sc_mcu7t5v0__fillcap_8
XFILLER_15_239 vdd vss gf180mcu_fd_sc_mcu7t5v0__fill_2
XFILLER_70_378 vdd vss gf180mcu_fd_sc_mcu7t5v0__fill_2
XANTENNA__2073__A1 _1007_ vdd vss gf180mcu_fd_sc_mcu7t5v0__antenna
XFILLER_70_389 vdd vss gf180mcu_fd_sc_mcu7t5v0__fill_1
XFILLER_23_272 vdd vss gf180mcu_fd_sc_mcu7t5v0__fillcap_4
XFILLER_23_283 vdd vss gf180mcu_fd_sc_mcu7t5v0__fill_1
XANTENNA__1820__A1 _0867_ vdd vss gf180mcu_fd_sc_mcu7t5v0__antenna
XFILLER_7_416 vdd vss gf180mcu_fd_sc_mcu7t5v0__fillcap_8
XFILLER_23_75 vdd vss gf180mcu_fd_sc_mcu7t5v0__fill_1
XANTENNA__2376__A2 _1096_ vdd vss gf180mcu_fd_sc_mcu7t5v0__antenna
XANTENNA__2128__A2 _1125_ vdd vss gf180mcu_fd_sc_mcu7t5v0__antenna
XFILLER_2_176 vdd vss gf180mcu_fd_sc_mcu7t5v0__fill_1
XFILLER_48_61 vdd vss gf180mcu_fd_sc_mcu7t5v0__fill_1
XFILLER_19_512 vdd vss gf180mcu_fd_sc_mcu7t5v0__fill_1
XANTENNA__1639__A1 _0175_ vdd vss gf180mcu_fd_sc_mcu7t5v0__antenna
XFILLER_46_331 vdd vss gf180mcu_fd_sc_mcu7t5v0__fill_1
XFILLER_46_342 vdd vss gf180mcu_fd_sc_mcu7t5v0__fillcap_4
XFILLER_46_375 vdd vss gf180mcu_fd_sc_mcu7t5v0__fill_2
XFILLER_64_60 vdd vss gf180mcu_fd_sc_mcu7t5v0__fill_2
XFILLER_0_79 vdd vss gf180mcu_fd_sc_mcu7t5v0__fillcap_16
XANTENNA__2064__A1 freeRunCntr\[12\] vdd vss gf180mcu_fd_sc_mcu7t5v0__antenna
XFILLER_14_250 vdd vss gf180mcu_fd_sc_mcu7t5v0__fill_2
X_1940_ _0787_ _0806_ _0988_ _0783_ _0602_ _0989_ vdd vss gf180mcu_fd_sc_mcu7t5v0__oai221_1
XFILLER_9_66 vdd vss gf180mcu_fd_sc_mcu7t5v0__fill_2
XANTENNA__1811__A1 _0208_ vdd vss gf180mcu_fd_sc_mcu7t5v0__antenna
X_1871_ _0873_ _0874_ _0920_ _0762_ _0921_ vdd vss gf180mcu_fd_sc_mcu7t5v0__oai211_1
XFILLER_6_460 vdd vss gf180mcu_fd_sc_mcu7t5v0__fill_1
XFILLER_6_482 vdd vss gf180mcu_fd_sc_mcu7t5v0__fill_1
X_2423_ _1290_ _1481_ _1486_ vdd vss gf180mcu_fd_sc_mcu7t5v0__xor2_1
XFILLER_43_2 vdd vss gf180mcu_fd_sc_mcu7t5v0__fill_2
XFILLER_69_434 vdd vss gf180mcu_fd_sc_mcu7t5v0__fill_1
X_2354_ _1185_ _1195_ _1410_ vdd vss gf180mcu_fd_sc_mcu7t5v0__xnor2_1
X_2285_ _1172_ _1268_ _1333_ _1335_ vdd vss gf180mcu_fd_sc_mcu7t5v0__nand3_1
XFILLER_37_320 vdd vss gf180mcu_fd_sc_mcu7t5v0__fill_2
XFILLER_52_378 vdd vss gf180mcu_fd_sc_mcu7t5v0__fill_2
XFILLER_52_389 vdd vss gf180mcu_fd_sc_mcu7t5v0__fill_1
XANTENNA__2055__A1 freeRunCntr\[6\] vdd vss gf180mcu_fd_sc_mcu7t5v0__antenna
XFILLER_20_231 vdd vss gf180mcu_fd_sc_mcu7t5v0__fill_2
XANTENNA__1802__A1 _0153_ vdd vss gf180mcu_fd_sc_mcu7t5v0__antenna
XFILLER_20_253 vdd vss gf180mcu_fd_sc_mcu7t5v0__fillcap_4
XFILLER_20_264 vdd vss gf180mcu_fd_sc_mcu7t5v0__fill_2
XFILLER_69_38 vdd vss gf180mcu_fd_sc_mcu7t5v0__fill_2
XFILLER_47_106 vdd vss gf180mcu_fd_sc_mcu7t5v0__fill_2
XFILLER_43_301 vdd vss gf180mcu_fd_sc_mcu7t5v0__fill_2
XFILLER_31_507 vdd vss gf180mcu_fd_sc_mcu7t5v0__fillcap_4
XANTENNA__2046__A1 _0439_ vdd vss gf180mcu_fd_sc_mcu7t5v0__antenna
XFILLER_43_378 vdd vss gf180mcu_fd_sc_mcu7t5v0__fill_2
XANTENNA__2597__A2 _0083_ vdd vss gf180mcu_fd_sc_mcu7t5v0__antenna
XFILLER_50_51 vdd vss gf180mcu_fd_sc_mcu7t5v0__fillcap_4
XFILLER_11_286 vdd vss gf180mcu_fd_sc_mcu7t5v0__fill_1
XFILLER_7_224 vdd vss gf180mcu_fd_sc_mcu7t5v0__fill_2
XANTENNA__2349__A2 _1187_ vdd vss gf180mcu_fd_sc_mcu7t5v0__antenna
XTAP_507 vdd vss gf180mcu_fd_sc_mcu7t5v0__filltie
XTAP_529 vdd vss gf180mcu_fd_sc_mcu7t5v0__filltie
XTAP_518 vdd vss gf180mcu_fd_sc_mcu7t5v0__filltie
XANTENNA__3216__CLK clknet_2_3__leaf_clk vdd vss gf180mcu_fd_sc_mcu7t5v0__antenna
XFILLER_3_496 vdd vss gf180mcu_fd_sc_mcu7t5v0__fill_1
XFILLER_66_459 vdd vss gf180mcu_fd_sc_mcu7t5v0__fill_2
XFILLER_19_320 vdd vss gf180mcu_fd_sc_mcu7t5v0__fill_2
X_2070_ sigRom.address\[3\] _1118_ vdd vss gf180mcu_fd_sc_mcu7t5v0__clkbuf_4
XANTENNA__2285__A1 _1172_ vdd vss gf180mcu_fd_sc_mcu7t5v0__antenna
XFILLER_46_194 vdd vss gf180mcu_fd_sc_mcu7t5v0__fill_2
X_2972_ _0518_ _0522_ _0523_ _0524_ vdd vss gf180mcu_fd_sc_mcu7t5v0__oai21_1
XFILLER_34_378 vdd vss gf180mcu_fd_sc_mcu7t5v0__fill_2
X_1923_ _0955_ _0971_ _0972_ vdd vss gf180mcu_fd_sc_mcu7t5v0__xor2_2
X_1854_ _0873_ _0874_ _0890_ _0857_ _0904_ vdd vss gf180mcu_fd_sc_mcu7t5v0__oai211_1
X_1785_ _0750_ _0823_ _0825_ _0831_ _0834_ _0835_ vdd vss gf180mcu_fd_sc_mcu7t5v0__oai32_2
XANTENNA__3117__I freeRunCntr\[12\] vdd vss gf180mcu_fd_sc_mcu7t5v0__antenna
X_2406_ _1462_ _1463_ _1468_ vdd vss gf180mcu_fd_sc_mcu7t5v0__and2_1
XFILLER_69_286 vdd vss gf180mcu_fd_sc_mcu7t5v0__fill_1
X_2337_ _1390_ _1391_ _1392_ vdd vss gf180mcu_fd_sc_mcu7t5v0__nor2_1
XFILLER_57_437 vdd vss gf180mcu_fd_sc_mcu7t5v0__fill_2
X_2268_ _1314_ _1315_ _1316_ vdd vss gf180mcu_fd_sc_mcu7t5v0__xor2_1
XANTENNA__2177__B _1224_ vdd vss gf180mcu_fd_sc_mcu7t5v0__antenna
XFILLER_72_418 vdd vss gf180mcu_fd_sc_mcu7t5v0__fill_2
XFILLER_25_323 vdd vss gf180mcu_fd_sc_mcu7t5v0__fill_1
X_2199_ _1139_ _1246_ _1247_ vdd vss gf180mcu_fd_sc_mcu7t5v0__nand2_1
XFILLER_13_507 vdd vss gf180mcu_fd_sc_mcu7t5v0__fillcap_4
XFILLER_52_164 vdd vss gf180mcu_fd_sc_mcu7t5v0__fill_2
XANTENNA__2028__A1 _0955_ vdd vss gf180mcu_fd_sc_mcu7t5v0__antenna
XANTENNA__1787__B1 _0800_ vdd vss gf180mcu_fd_sc_mcu7t5v0__antenna
XFILLER_20_10 vdd vss gf180mcu_fd_sc_mcu7t5v0__fill_2
XFILLER_4_216 vdd vss gf180mcu_fd_sc_mcu7t5v0__fill_2
XFILLER_20_65 vdd vss gf180mcu_fd_sc_mcu7t5v0__fill_2
XFILLER_0_422 vdd vss gf180mcu_fd_sc_mcu7t5v0__fill_1
XFILLER_20_87 vdd vss gf180mcu_fd_sc_mcu7t5v0__fill_2
XFILLER_48_415 vdd vss gf180mcu_fd_sc_mcu7t5v0__fill_2
XFILLER_28_161 vdd vss gf180mcu_fd_sc_mcu7t5v0__fill_2
XFILLER_45_40 vdd vss gf180mcu_fd_sc_mcu7t5v0__fill_2
XFILLER_45_73 vdd vss gf180mcu_fd_sc_mcu7t5v0__fill_2
XFILLER_16_389 vdd vss gf180mcu_fd_sc_mcu7t5v0__fill_1
XFILLER_31_326 vdd vss gf180mcu_fd_sc_mcu7t5v0__fill_2
XANTENNA__2019__A1 _0857_ vdd vss gf180mcu_fd_sc_mcu7t5v0__antenna
XFILLER_61_61 vdd vss gf180mcu_fd_sc_mcu7t5v0__fillcap_4
XFILLER_6_34 vdd vss gf180mcu_fd_sc_mcu7t5v0__fill_1
XFILLER_6_67 vdd vss gf180mcu_fd_sc_mcu7t5v0__fillcap_4
XFILLER_6_45 vdd vss gf180mcu_fd_sc_mcu7t5v0__fill_2
XTAP_304 vdd vss gf180mcu_fd_sc_mcu7t5v0__filltie
XTAP_315 vdd vss gf180mcu_fd_sc_mcu7t5v0__filltie
XFILLER_3_293 vdd vss gf180mcu_fd_sc_mcu7t5v0__fillcap_4
XTAP_326 vdd vss gf180mcu_fd_sc_mcu7t5v0__filltie
XTAP_337 vdd vss gf180mcu_fd_sc_mcu7t5v0__filltie
XTAP_348 vdd vss gf180mcu_fd_sc_mcu7t5v0__filltie
X_3171_ _0719_ _0015_ vdd vss gf180mcu_fd_sc_mcu7t5v0__clkbuf_1
XTAP_359 vdd vss gf180mcu_fd_sc_mcu7t5v0__filltie
X_2122_ _1153_ _1168_ _1169_ _1170_ vdd vss gf180mcu_fd_sc_mcu7t5v0__oai21_1
XFILLER_47_492 vdd vss gf180mcu_fd_sc_mcu7t5v0__fillcap_4
XFILLER_19_161 vdd vss gf180mcu_fd_sc_mcu7t5v0__fill_2
X_2053_ _0882_ _1067_ _1045_ freeRunCntr\[6\] _1102_ vdd vss gf180mcu_fd_sc_mcu7t5v0__aoi22_1
XANTENNA__2258__A1 _1045_ vdd vss gf180mcu_fd_sc_mcu7t5v0__antenna
XANTENNA__2258__B2 _1025_ vdd vss gf180mcu_fd_sc_mcu7t5v0__antenna
XFILLER_34_131 vdd vss gf180mcu_fd_sc_mcu7t5v0__fill_2
XFILLER_34_186 vdd vss gf180mcu_fd_sc_mcu7t5v0__fill_2
X_2955_ _0480_ _0346_ _0506_ vdd vss gf180mcu_fd_sc_mcu7t5v0__xor2_1
X_2886_ _0397_ _0430_ vdd vss gf180mcu_fd_sc_mcu7t5v0__clkinv_1
X_1906_ _1323_ _0955_ vdd vss gf180mcu_fd_sc_mcu7t5v0__buf_3
XANTENNA__2430__A1 _1492_ vdd vss gf180mcu_fd_sc_mcu7t5v0__antenna
XFILLER_30_392 vdd vss gf180mcu_fd_sc_mcu7t5v0__fill_2
XANTENNA__2981__A2 _1317_ vdd vss gf180mcu_fd_sc_mcu7t5v0__antenna
X_1837_ _0775_ _0754_ _0857_ _0208_ _0887_ vdd vss gf180mcu_fd_sc_mcu7t5v0__oai211_1
XANTENNA__2733__A2 _0260_ vdd vss gf180mcu_fd_sc_mcu7t5v0__antenna
X_1768_ _0813_ _0817_ _0818_ vdd vss gf180mcu_fd_sc_mcu7t5v0__nand2_1
XFILLER_1_208 vdd vss gf180mcu_fd_sc_mcu7t5v0__fill_2
X_1699_ _0747_ _0748_ _0749_ vdd vss gf180mcu_fd_sc_mcu7t5v0__or2_4
XFILLER_66_17 vdd vss gf180mcu_fd_sc_mcu7t5v0__fill_2
XANTENNA__1804__B _0698_ vdd vss gf180mcu_fd_sc_mcu7t5v0__antenna
XFILLER_66_39 vdd vss gf180mcu_fd_sc_mcu7t5v0__fill_1
XFILLER_57_212 vdd vss gf180mcu_fd_sc_mcu7t5v0__fill_1
XFILLER_45_407 vdd vss gf180mcu_fd_sc_mcu7t5v0__fill_2
XFILLER_72_215 vdd vss gf180mcu_fd_sc_mcu7t5v0__fillcap_8
XFILLER_25_120 vdd vss gf180mcu_fd_sc_mcu7t5v0__fill_1
XFILLER_53_462 vdd vss gf180mcu_fd_sc_mcu7t5v0__fill_2
XFILLER_25_175 vdd vss gf180mcu_fd_sc_mcu7t5v0__fill_2
XFILLER_53_495 vdd vss gf180mcu_fd_sc_mcu7t5v0__fill_2
XFILLER_9_319 vdd vss gf180mcu_fd_sc_mcu7t5v0__fill_2
XFILLER_15_76 vdd vss gf180mcu_fd_sc_mcu7t5v0__fillcap_4
XFILLER_15_87 vdd vss gf180mcu_fd_sc_mcu7t5v0__fill_2
XANTENNA__2421__A1 _1340_ vdd vss gf180mcu_fd_sc_mcu7t5v0__antenna
Xoutput7 net7 qcos vdd vss gf180mcu_fd_sc_mcu7t5v0__clkbuf_3
XFILLER_48_201 vdd vss gf180mcu_fd_sc_mcu7t5v0__fill_2
XANTENNA__2488__A1 _1194_ vdd vss gf180mcu_fd_sc_mcu7t5v0__antenna
XFILLER_0_285 vdd vss gf180mcu_fd_sc_mcu7t5v0__fillcap_4
XANTENNA__2488__B2 _1159_ vdd vss gf180mcu_fd_sc_mcu7t5v0__antenna
XFILLER_48_278 vdd vss gf180mcu_fd_sc_mcu7t5v0__fill_2
XFILLER_36_407 vdd vss gf180mcu_fd_sc_mcu7t5v0__fill_1
XFILLER_63_215 vdd vss gf180mcu_fd_sc_mcu7t5v0__fill_2
XFILLER_63_204 vdd vss gf180mcu_fd_sc_mcu7t5v0__fill_2
XFILLER_29_470 vdd vss gf180mcu_fd_sc_mcu7t5v0__fill_2
XFILLER_56_94 vdd vss gf180mcu_fd_sc_mcu7t5v0__fill_1
XFILLER_31_101 vdd vss gf180mcu_fd_sc_mcu7t5v0__fillcap_4
XANTENNA__2660__A1 _1078_ vdd vss gf180mcu_fd_sc_mcu7t5v0__antenna
XFILLER_16_197 vdd vss gf180mcu_fd_sc_mcu7t5v0__fill_2