*SPEF "ieee 1481-1999"
*DESIGN "clkmux2"
*DATE "11:11:11 Fri 11 11, 1111"
*VENDOR "OpenRCX"
*PROGRAM "Parallel Extraction"
*VERSION "1.0"
*DESIGN_FLOW "NAME_SCOPE LOCAL" "PIN_CAP NONE"
*DIVIDER /
*DELIMITER :
*BUS_DELIMITER []
*T_UNIT 1 NS
*C_UNIT 1 PF
*R_UNIT 1 OHM
*L_UNIT 1 HENRY

*NAME_MAP
*1 clka
*2 clkb
*3 gclk
*4 select
*7 _00_
*8 _01_
*9 clkapa
*10 clkbpb
*11 clkpaa
*12 clkpab
*13 clkpba
*14 clkpbb
*15 net1
*16 net2
*17 net3
*18 net4
*19 ANTENNA_input1_I
*20 ANTENNA_input2_I
*21 ANTENNA_input3_I
*22 FILLER_0_100
*23 FILLER_0_104
*24 FILLER_0_107
*25 FILLER_0_115
*26 FILLER_0_2
*27 FILLER_0_34
*28 FILLER_0_37
*29 FILLER_0_40
*30 FILLER_0_56
*31 FILLER_0_64
*32 FILLER_0_68
*33 FILLER_0_72
*34 FILLER_0_80
*35 FILLER_10_101
*36 FILLER_10_105
*37 FILLER_10_108
*38 FILLER_10_2
*39 FILLER_10_34
*40 FILLER_10_37
*41 FILLER_11_104
*42 FILLER_11_107
*43 FILLER_11_115
*44 FILLER_11_2
*45 FILLER_11_34
*46 FILLER_11_37
*47 FILLER_11_53
*48 FILLER_11_69
*49 FILLER_11_72
*50 FILLER_1_105
*51 FILLER_1_113
*52 FILLER_1_115
*53 FILLER_1_2
*54 FILLER_1_66
*55 FILLER_1_70
*56 FILLER_1_73
*57 FILLER_2_101
*58 FILLER_2_105
*59 FILLER_2_108
*60 FILLER_2_2
*61 FILLER_2_34
*62 FILLER_2_37
*63 FILLER_3_105
*64 FILLER_3_113
*65 FILLER_3_115
*66 FILLER_3_2
*67 FILLER_3_34
*68 FILLER_3_65
*69 FILLER_3_69
*70 FILLER_3_73
*71 FILLER_4_104
*72 FILLER_4_108
*73 FILLER_4_2
*74 FILLER_4_34
*75 FILLER_4_37
*76 FILLER_4_45
*77 FILLER_4_49
*78 FILLER_4_80
*79 FILLER_4_96
*80 FILLER_5_112
*81 FILLER_5_2
*82 FILLER_5_37
*83 FILLER_5_39
*84 FILLER_5_5
*85 FILLER_5_69
*86 FILLER_5_73
*87 FILLER_5_80
*88 FILLER_6_108
*89 FILLER_6_19
*90 FILLER_6_2
*91 FILLER_6_37
*92 FILLER_6_43
*93 FILLER_6_74
*94 FILLER_7_105
*95 FILLER_7_113
*96 FILLER_7_115
*97 FILLER_7_2
*98 FILLER_7_34
*99 FILLER_7_42
*100 FILLER_7_49
*101 FILLER_7_60
*102 FILLER_7_66
*103 FILLER_7_70
*104 FILLER_7_73
*105 FILLER_8_101
*106 FILLER_8_105
*107 FILLER_8_108
*108 FILLER_8_2
*109 FILLER_8_34
*110 FILLER_8_37
*111 FILLER_9_105
*112 FILLER_9_113
*113 FILLER_9_115
*114 FILLER_9_2
*115 FILLER_9_66
*116 FILLER_9_70
*117 FILLER_9_73
*118 PHY_0
*119 PHY_1
*120 PHY_10
*121 PHY_11
*122 PHY_12
*123 PHY_13
*124 PHY_14
*125 PHY_15
*126 PHY_16
*127 PHY_17
*128 PHY_18
*129 PHY_19
*130 PHY_2
*131 PHY_20
*132 PHY_21
*133 PHY_22
*134 PHY_23
*135 PHY_3
*136 PHY_4
*137 PHY_5
*138 PHY_6
*139 PHY_7
*140 PHY_8
*141 PHY_9
*142 TAP_24
*143 TAP_25
*144 TAP_26
*145 TAP_27
*146 TAP_28
*147 TAP_29
*148 TAP_30
*149 TAP_31
*150 TAP_32
*151 TAP_33
*152 TAP_34
*153 TAP_35
*154 TAP_36
*155 TAP_37
*156 TAP_38
*157 TAP_39
*158 TAP_40
*159 TAP_41
*160 TAP_42
*161 TAP_43
*162 TAP_44
*163 _02_
*164 _03_
*165 _04_
*166 _05_
*167 _06_
*168 _07_
*169 _08_
*170 _09_
*171 _10_
*172 input1
*173 input2
*174 input3
*175 output4

*PORTS
clka I
clkb I
gclk O
select I

*D_NET *1 0.00202605
*CONN
*P clka I
*I *172:I I *D gf180mcu_fd_sc_mcu7t5v0__dlyb_1
*I *19:I I *D gf180mcu_fd_sc_mcu7t5v0__antenna
*CAP
1 clka 0.000600972
2 *172:I 0
3 *19:I 0.000412054
4 *1:5 0.00101303
*RES
1 clka *1:5 4.365 
2 *1:5 *19:I 16.29 
3 *1:5 *172:I 4.5 
*END

*D_NET *2 0.00165347
*CONN
*P clkb I
*I *173:I I *D gf180mcu_fd_sc_mcu7t5v0__dlyb_1
*I *20:I I *D gf180mcu_fd_sc_mcu7t5v0__antenna
*CAP
1 clkb 0.000600972
2 *173:I 0
3 *20:I 0.000225763
4 *2:5 0.000826735
*RES
1 clkb *2:5 4.365 
2 *2:5 *20:I 15.03 
3 *2:5 *173:I 4.5 
*END

*D_NET *3 0.00152835
*CONN
*P gclk O
*I *175:Z O *D gf180mcu_fd_sc_mcu7t5v0__clkbuf_3
*CAP
1 gclk 0.00075283
2 *175:Z 0.00075283
3 gclk *175:I 2.26873e-05
*RES
1 *175:Z gclk 10.305 
*END

*D_NET *4 0.00094286
*CONN
*P select I
*I *174:I I *D gf180mcu_fd_sc_mcu7t5v0__dlyb_1
*I *21:I I *D gf180mcu_fd_sc_mcu7t5v0__antenna
*CAP
1 select 0.000266411
2 *174:I 4.64406e-05
3 *21:I 0.000158578
4 *4:7 0.00047143
*RES
1 select *4:7 6.525 
2 *4:7 *21:I 5.4 
3 *4:7 *174:I 4.77 
*END

*D_NET *7 0.000635524
*CONN
*I *166:I I *D gf180mcu_fd_sc_mcu7t5v0__clkinv_1
*I *165:ZN O *D gf180mcu_fd_sc_mcu7t5v0__aoi22_1
*CAP
1 *166:I 0.000195514
2 *165:ZN 0.000195514
3 *166:I *165:B1 8.1208e-05
4 *166:I *165:B2 0.000163287
*RES
1 *165:ZN *166:I 19.53 
*END

*D_NET *8 0.00287466
*CONN
*I *164:A1 I *D gf180mcu_fd_sc_mcu7t5v0__nor2_1
*I *163:ZN O *D gf180mcu_fd_sc_mcu7t5v0__clkinv_1
*CAP
1 *164:A1 0.00105007
2 *163:ZN 0.00105007
3 *164:A1 *164:A2 0.000152802
4 *164:A1 *165:A1 0.000259286
5 *164:A1 *165:A2 0.000223428
6 *164:A1 *165:B1 0
7 *164:A1 *168:D 0.000104382
8 *164:A1 *16:20 3.46245e-05
*RES
1 *163:ZN *164:A1 25.2 
*END

*D_NET *9 0.00257545
*CONN
*I *171:D I *D gf180mcu_fd_sc_mcu7t5v0__dffq_1
*I *167:ZN O *D gf180mcu_fd_sc_mcu7t5v0__nor2_1
*CAP
1 *171:D 0.000627406
2 *167:ZN 0.000627406
3 *171:D *165:A2 4.79092e-06
4 *171:D *167:A1 3.40181e-05
5 *171:D *168:D 0.000709927
6 *171:D *170:D 0.000424459
7 *171:D *14:7 0.000112848
8 *171:D *15:17 3.4594e-05
*RES
1 *167:ZN *171:D 14.85 
*END

*D_NET *10 0.00107681
*CONN
*I *169:D I *D gf180mcu_fd_sc_mcu7t5v0__dffq_1
*I *164:ZN O *D gf180mcu_fd_sc_mcu7t5v0__nor2_1
*CAP
1 *169:D 0.000521746
2 *164:ZN 0.000521746
3 *169:D *16:20 3.33177e-05
*RES
1 *164:ZN *169:D 12.06 
*END

*D_NET *11 0.00193488
*CONN
*I *170:D I *D gf180mcu_fd_sc_mcu7t5v0__dffq_1
*I *171:Q O *D gf180mcu_fd_sc_mcu7t5v0__dffq_1
*CAP
1 *170:D 0.000724584
2 *171:Q 0.000724584
3 *170:D *14:7 6.12558e-05
4 *170:D *15:17 0
5 *171:D *170:D 0.000424459
*RES
1 *171:Q *170:D 23.4 
*END

*D_NET *12 0.00337587
*CONN
*I *164:A2 I *D gf180mcu_fd_sc_mcu7t5v0__nor2_1
*I *165:A1 I *D gf180mcu_fd_sc_mcu7t5v0__aoi22_1
*I *170:Q O *D gf180mcu_fd_sc_mcu7t5v0__dffq_1
*CAP
1 *164:A2 0.000140073
2 *165:A1 0.000331092
3 *170:Q 0
4 *12:5 0.000471165
5 *164:A2 *168:D 0.000283885
6 *165:A1 *165:A2 0.000357441
7 *165:A1 *165:B1 0.000151463
8 *165:A1 *168:D 0.0009378
9 *165:A1 *14:7 0.000290866
10 *164:A1 *164:A2 0.000152802
11 *164:A1 *165:A1 0.000259286
*RES
1 *170:Q *12:5 9 
2 *12:5 *165:A1 14.22 
3 *12:5 *164:A2 10.53 
*END

*D_NET *13 0.00361359
*CONN
*I *168:D I *D gf180mcu_fd_sc_mcu7t5v0__dffq_1
*I *169:Q O *D gf180mcu_fd_sc_mcu7t5v0__dffq_1
*CAP
1 *168:D 0.000752331
2 *169:Q 0.000752331
3 *168:D *165:A2 7.29325e-05
4 *168:D *168:CLK 0
5 *168:D *15:17 0
6 *168:D *16:20 0
7 *164:A1 *168:D 0.000104382
8 *164:A2 *168:D 0.000283885
9 *165:A1 *168:D 0.0009378
10 *171:D *168:D 0.000709927
*RES
1 *169:Q *168:D 25.47 
*END

*D_NET *14 0.00230959
*CONN
*I *165:B2 I *D gf180mcu_fd_sc_mcu7t5v0__aoi22_1
*I *167:A2 I *D gf180mcu_fd_sc_mcu7t5v0__nor2_1
*I *168:Q O *D gf180mcu_fd_sc_mcu7t5v0__dffq_1
*CAP
1 *165:B2 0.000147273
2 *167:A2 0.000108937
3 *168:Q 0.000370321
4 *14:7 0.000626531
5 *165:B2 *165:A2 6.39661e-06
6 *167:A2 *165:A2 6.44314e-05
7 *14:7 *165:A2 0.000357441
8 *165:A1 *14:7 0.000290866
9 *166:I *165:B2 0.000163287
10 *170:D *14:7 6.12558e-05
11 *171:D *14:7 0.000112848
*RES
1 *168:Q *14:7 12.69 
2 *14:7 *167:A2 9.99 
3 *14:7 *165:B2 9.99 
*END

*D_NET *15 0.00482467
*CONN
*I *165:A2 I *D gf180mcu_fd_sc_mcu7t5v0__aoi22_1
*I *170:CLK I *D gf180mcu_fd_sc_mcu7t5v0__dffq_1
*I *171:CLK I *D gf180mcu_fd_sc_mcu7t5v0__dffq_1
*I *172:Z O *D gf180mcu_fd_sc_mcu7t5v0__dlyb_1
*CAP
1 *165:A2 0.000558657
2 *170:CLK 0
3 *171:CLK 0
4 *172:Z 0.000724423
5 *15:17 0.00103839
6 *15:9 0.00120416
7 *165:A2 *167:A1 0.00017758
8 *15:17 *167:A1 0
9 *164:A1 *165:A2 0.000223428
10 *165:A1 *165:A2 0.000357441
11 *165:B2 *165:A2 6.39661e-06
12 *167:A2 *165:A2 6.44314e-05
13 *168:D *165:A2 7.29325e-05
14 *168:D *15:17 0
15 *170:D *15:17 0
16 *171:D *165:A2 4.79092e-06
17 *171:D *15:17 3.4594e-05
18 *14:7 *165:A2 0.000357441
*RES
1 *172:Z *15:9 9.45 
2 *15:9 *171:CLK 4.5 
3 *15:9 *15:17 3.42 
4 *15:17 *170:CLK 4.5 
5 *15:17 *165:A2 18.27 
*END

*D_NET *16 0.00471527
*CONN
*I *165:B1 I *D gf180mcu_fd_sc_mcu7t5v0__aoi22_1
*I *169:CLK I *D gf180mcu_fd_sc_mcu7t5v0__dffq_1
*I *168:CLK I *D gf180mcu_fd_sc_mcu7t5v0__dffq_1
*I *173:Z O *D gf180mcu_fd_sc_mcu7t5v0__dlyb_1
*CAP
1 *165:B1 0.000624231
2 *169:CLK 0
3 *168:CLK 3.31589e-05
4 *173:Z 0.000970081
5 *16:20 0.00120409
6 *16:10 0.0015831
7 *164:A1 *165:B1 0
8 *164:A1 *16:20 3.46245e-05
9 *165:A1 *165:B1 0.000151463
10 *166:I *165:B1 8.1208e-05
11 *168:D *168:CLK 0
12 *168:D *16:20 0
13 *169:D *16:20 3.33177e-05
*RES
1 *173:Z *16:10 19.98 
2 *16:10 *168:CLK 4.77 
3 *16:10 *16:20 8.1 
4 *16:20 *169:CLK 9 
5 *16:20 *165:B1 13.41 
*END

*D_NET *17 0.0020549
*CONN
*I *167:A1 I *D gf180mcu_fd_sc_mcu7t5v0__nor2_1
*I *163:I I *D gf180mcu_fd_sc_mcu7t5v0__clkinv_1
*I *174:Z O *D gf180mcu_fd_sc_mcu7t5v0__dlyb_1
*CAP
1 *167:A1 0.000285909
2 *163:I 0
3 *174:Z 0.000635742
4 *17:12 0.000921652
5 *165:A2 *167:A1 0.00017758
6 *171:D *167:A1 3.40181e-05
7 *15:17 *167:A1 0
*RES
1 *174:Z *17:12 18.09 
2 *17:12 *163:I 4.5 
3 *17:12 *167:A1 6.75 
*END

*D_NET *18 0.00159571
*CONN
*I *175:I I *D gf180mcu_fd_sc_mcu7t5v0__clkbuf_3
*I *166:ZN O *D gf180mcu_fd_sc_mcu7t5v0__clkinv_1
*CAP
1 *175:I 0.000786512
2 *166:ZN 0.000786512
3 gclk *175:I 2.26873e-05
*RES
1 *166:ZN *175:I 14.13 
*END
