*SPEF "ieee 1481-1999"
*DESIGN "DIGOTA"
*DATE "11:11:11 Fri 11 11, 1111"
*VENDOR "OpenRCX"
*PROGRAM "Parallel Extraction"
*VERSION "1.0"
*DESIGN_FLOW "NAME_SCOPE LOCAL" "PIN_CAP NONE"
*DIVIDER /
*DELIMITER :
*BUS_DELIMITER []
*T_UNIT 1 NS
*C_UNIT 1 PF
*R_UNIT 1 OHM
*L_UNIT 1 HENRY

*NAME_MAP
*1 INmb
*2 INpb
*3 cmnmos
*4 cmpmos
*5 oe
*6 onmos
*7 opmos
*10 _0_
*11 _1_
*12 net1
*13 net2
*14 net3
*15 net4
*16 net5
*17 net6
*18 net7
*19 ANTENNA_input1_I
*20 ANTENNA_input2_I
*21 ANTENNA_input3_I
*22 FILLER_0_2
*23 FILLER_0_20
*24 FILLER_0_29
*25 FILLER_0_33
*26 FILLER_0_37
*27 FILLER_0_54
*28 FILLER_0_58
*29 FILLER_0_62
*30 FILLER_1_17
*31 FILLER_1_2
*32 FILLER_1_29
*33 FILLER_1_56
*34 FILLER_1_60
*35 FILLER_1_62
*36 FILLER_2_17
*37 FILLER_2_2
*38 FILLER_2_27
*39 FILLER_2_33
*40 FILLER_2_37
*41 FILLER_2_53
*42 FILLER_2_61
*43 FILLER_3_2
*44 FILLER_3_25
*45 FILLER_3_34
*46 FILLER_3_37
*47 FILLER_3_4
*48 FILLER_3_52
*49 FILLER_3_60
*50 FILLER_3_62
*51 FILLER_3_9
*52 PHY_0
*53 PHY_1
*54 PHY_2
*55 PHY_3
*56 PHY_4
*57 PHY_5
*58 PHY_6
*59 PHY_7
*60 TAP_10
*61 TAP_8
*62 TAP_9
*63 _2_
*64 _3_
*65 _4_
*66 _5_
*67 _6_
*68 _7_
*69 input1
*70 input2
*71 input3
*72 output4
*73 output5
*74 output6
*75 output7

*PORTS
INmb I
INpb I
cmnmos O
cmpmos O
oe I
onmos O
opmos O

*D_NET *1 0.00454281
*CONN
*P INmb I
*I *19:I I *D gf180mcu_fd_sc_mcu7t5v0__antenna
*I *69:I I *D gf180mcu_fd_sc_mcu7t5v0__dlyc_1
*CAP
1 INmb 0.00132403
2 *19:I 0.000269894
3 *69:I 5.11271e-05
4 *1:12 0.00164505
5 *19:I *71:I 0
6 *1:12 *64:A1 0.000161488
7 *1:12 *74:I 0.000569482
8 *1:12 *12:8 9.29585e-05
9 *1:12 *14:8 2.98247e-06
10 *1:12 *14:23 0.000425799
*RES
1 INmb *1:12 14.535 
2 *1:12 *69:I 9.27 
3 *1:12 *19:I 10.53 
*END

*D_NET *2 0.003504
*CONN
*P INpb I
*I *70:I I *D gf180mcu_fd_sc_mcu7t5v0__dlyb_1
*I *20:I I *D gf180mcu_fd_sc_mcu7t5v0__antenna
*CAP
1 INpb 0.000579553
2 *70:I 0
3 *20:I 0.000854147
4 *2:9 0.0014337
5 *20:I *74:I 0
6 *20:I *11:14 0
7 *20:I *12:8 0
8 *20:I *14:8 5.80081e-05
9 *2:9 cmpmos 0.000578588
*RES
1 INpb *2:9 5.085 
2 *2:9 *20:I 18.09 
3 *2:9 *70:I 4.5 
*END

*D_NET *3 0.00169094
*CONN
*P cmnmos O
*I *72:Z O *D gf180mcu_fd_sc_mcu7t5v0__clkbuf_3
*CAP
1 cmnmos 0.000720082
2 *72:Z 0.000720082
3 cmnmos opmos 0.000144231
4 cmnmos *63:I 0.000106548
5 cmnmos *73:I 0
*RES
1 *72:Z cmnmos 14.715 
*END

*D_NET *4 0.0017711
*CONN
*P cmpmos O
*I *73:Z O *D gf180mcu_fd_sc_mcu7t5v0__clkbuf_3
*CAP
1 cmpmos 0.000596256
2 *73:Z 0.000596256
3 *2:9 cmpmos 0.000578588
*RES
1 *73:Z cmpmos 13.815 
*END

*D_NET *5 0.00182355
*CONN
*P oe I
*I *21:I I *D gf180mcu_fd_sc_mcu7t5v0__antenna
*I *71:I I *D gf180mcu_fd_sc_mcu7t5v0__dlyb_1
*CAP
1 oe 0.000718127
2 *21:I 0
3 *71:I 0.00019365
4 *5:9 0.000911777
5 *19:I *71:I 0
*RES
1 oe *5:9 5.265 
2 *5:9 *71:I 14.67 
3 *5:9 *21:I 4.5 
*END

*D_NET *6 0.00175391
*CONN
*P onmos O
*I *74:Z O *D gf180mcu_fd_sc_mcu7t5v0__clkbuf_3
*CAP
1 onmos 0.000876956
2 *74:Z 0.000876956
*RES
1 *74:Z onmos 19.755 
*END

*D_NET *7 0.00159572
*CONN
*P opmos O
*I *75:Z O *D gf180mcu_fd_sc_mcu7t5v0__clkbuf_3
*CAP
1 opmos 0.000725744
2 *75:Z 0.000725744
3 cmnmos opmos 0.000144231
*RES
1 *75:Z opmos 10.395 
*END

*D_NET *10 0.00199658
*CONN
*I *66:A1 I *D gf180mcu_fd_sc_mcu7t5v0__nor3_1
*I *68:A1 I *D gf180mcu_fd_sc_mcu7t5v0__nor3_1
*I *65:ZN O *D gf180mcu_fd_sc_mcu7t5v0__clkinv_1
*CAP
1 *66:A1 3.46725e-05
2 *68:A1 0.000281543
3 *65:ZN 0.00015834
4 *10:8 0.000474556
5 *66:A1 *75:I 6.06361e-05
6 *66:A1 *12:11 1.47439e-05
7 *66:A1 *12:27 9.04462e-05
8 *68:A1 *67:A2 2.51403e-06
9 *68:A1 *67:A3 5.85514e-06
10 *68:A1 *11:14 0.00018618
11 *68:A1 *12:8 8.67364e-05
12 *68:A1 *12:27 6.3498e-05
13 *68:A1 *13:21 5.38943e-06
14 *10:8 *67:A3 2.65072e-05
15 *10:8 *74:I 0
16 *10:8 *12:8 0.000268484
17 *10:8 *14:23 0.000236481
*RES
1 *65:ZN *10:8 10.44 
2 *10:8 *68:A1 10.98 
3 *10:8 *66:A1 9.45 
*END

*D_NET *11 0.00367547
*CONN
*I *66:A2 I *D gf180mcu_fd_sc_mcu7t5v0__nor3_1
*I *64:A2 I *D gf180mcu_fd_sc_mcu7t5v0__nand3_1
*I *63:ZN O *D gf180mcu_fd_sc_mcu7t5v0__clkinv_1
*CAP
1 *66:A2 0
2 *64:A2 0.00018024
3 *63:ZN 0.000725277
4 *11:14 0.000905518
5 *64:A2 *64:A1 3.22289e-05
6 *64:A2 *64:A3 7.20628e-05
7 *64:A2 *75:I 0.000105364
8 *64:A2 *12:11 2.21159e-05
9 *64:A2 *14:23 1.0743e-05
10 *11:14 *63:I 0.000314928
11 *11:14 *64:A3 3.98162e-05
12 *11:14 *72:I 0
13 *11:14 *73:I 0.000424343
14 *11:14 *75:I 0
15 *11:14 *12:11 1.51249e-05
16 *11:14 *12:27 2.65663e-06
17 *11:14 *13:7 0.000638876
18 *11:14 *13:21 0
19 *20:I *11:14 0
20 *68:A1 *11:14 0.00018618
*RES
1 *63:ZN *11:14 28.35 
2 *11:14 *64:A2 6.48 
3 *11:14 *66:A2 4.5 
*END

*D_NET *12 0.00369739
*CONN
*I *68:A3 I *D gf180mcu_fd_sc_mcu7t5v0__nor3_1
*I *67:A3 I *D gf180mcu_fd_sc_mcu7t5v0__nand3_1
*I *66:A3 I *D gf180mcu_fd_sc_mcu7t5v0__nor3_1
*I *64:A3 I *D gf180mcu_fd_sc_mcu7t5v0__nand3_1
*I *69:Z O *D gf180mcu_fd_sc_mcu7t5v0__dlyc_1
*CAP
1 *68:A3 0
2 *67:A3 0.000289364
3 *66:A3 0
4 *64:A3 0.000212004
5 *69:Z 9.40431e-05
6 *12:27 0.000391464
7 *12:11 0.00028354
8 *12:8 0.00026768
9 *64:A3 *75:I 0
10 *64:A3 *13:7 8.91956e-05
11 *67:A3 *67:A1 0.000250155
12 *67:A3 *67:A2 0.000424137
13 *67:A3 *74:I 1.75736e-05
14 *67:A3 *14:23 0.000254787
15 *12:8 *74:I 7.90603e-05
16 *12:8 *14:23 7.01342e-06
17 *12:27 *75:I 0.000236371
18 *20:I *12:8 0
19 *64:A2 *64:A3 7.20628e-05
20 *64:A2 *12:11 2.21159e-05
21 *66:A1 *12:11 1.47439e-05
22 *66:A1 *12:27 9.04462e-05
23 *68:A1 *67:A3 5.85514e-06
24 *68:A1 *12:8 8.67364e-05
25 *68:A1 *12:27 6.3498e-05
26 *1:12 *12:8 9.29585e-05
27 *10:8 *67:A3 2.65072e-05
28 *10:8 *12:8 0.000268484
29 *11:14 *64:A3 3.98162e-05
30 *11:14 *12:11 1.51249e-05
31 *11:14 *12:27 2.65663e-06
*RES
1 *69:Z *12:8 14.67 
2 *12:8 *12:11 0.72 
3 *12:11 *64:A3 6.57 
4 *12:11 *66:A3 4.5 
5 *12:8 *12:27 1.17 
6 *12:27 *67:A3 16.2 
7 *12:27 *68:A3 4.5 
*END

*D_NET *13 0.00460267
*CONN
*I *67:A2 I *D gf180mcu_fd_sc_mcu7t5v0__nand3_1
*I *68:A2 I *D gf180mcu_fd_sc_mcu7t5v0__nor3_1
*I *63:I I *D gf180mcu_fd_sc_mcu7t5v0__clkinv_1
*I *70:Z O *D gf180mcu_fd_sc_mcu7t5v0__dlyb_1
*CAP
1 *67:A2 0.000332372
2 *68:A2 5.53149e-05
3 *63:I 0.000444882
4 *70:Z 0.000218225
5 *13:21 0.000505937
6 *13:7 0.000781356
7 *63:I *72:I 0.000215586
8 *63:I *73:I 4.1318e-05
9 *67:A2 *67:A1 0.000106548
10 *67:A2 *73:I 4.07982e-05
11 *13:7 *73:I 8.44399e-05
12 *13:21 *72:I 0.000132957
13 *13:21 *73:I 6.13521e-05
14 cmnmos *63:I 0.000106548
15 *64:A3 *13:7 8.91956e-05
16 *67:A3 *67:A2 0.000424137
17 *68:A1 *67:A2 2.51403e-06
18 *68:A1 *13:21 5.38943e-06
19 *11:14 *63:I 0.000314928
20 *11:14 *13:7 0.000638876
21 *11:14 *13:21 0
*RES
1 *70:Z *13:7 11.61 
2 *13:7 *63:I 12.42 
3 *13:7 *13:21 0.99 
4 *13:21 *68:A2 9.27 
5 *13:21 *67:A2 11.61 
*END

*D_NET *14 0.00394375
*CONN
*I *67:A1 I *D gf180mcu_fd_sc_mcu7t5v0__nand3_1
*I *65:I I *D gf180mcu_fd_sc_mcu7t5v0__clkinv_1
*I *64:A1 I *D gf180mcu_fd_sc_mcu7t5v0__nand3_1
*I *71:Z O *D gf180mcu_fd_sc_mcu7t5v0__dlyb_1
*CAP
1 *67:A1 0.000241748
2 *65:I 0
3 *64:A1 8.66072e-05
4 *71:Z 0.000252258
5 *14:23 0.000445154
6 *14:8 0.00054227
7 *67:A1 *75:I 7.76426e-05
8 *14:8 *74:I 9.06653e-05
9 *14:23 *74:I 0
10 *14:23 *75:I 0.00066117
11 *20:I *14:8 5.80081e-05
12 *64:A2 *64:A1 3.22289e-05
13 *64:A2 *14:23 1.0743e-05
14 *67:A2 *67:A1 0.000106548
15 *67:A3 *67:A1 0.000250155
16 *67:A3 *14:23 0.000254787
17 *1:12 *64:A1 0.000161488
18 *1:12 *14:8 2.98247e-06
19 *1:12 *14:23 0.000425799
20 *10:8 *14:23 0.000236481
21 *12:8 *14:23 7.01342e-06
*RES
1 *71:Z *14:8 15.39 
2 *14:8 *64:A1 5.4 
3 *14:8 *14:23 12.15 
4 *14:23 *65:I 4.5 
5 *14:23 *67:A1 6.66 
*END

*D_NET *15 0.000583724
*CONN
*I *72:I I *D gf180mcu_fd_sc_mcu7t5v0__clkbuf_3
*I *68:ZN O *D gf180mcu_fd_sc_mcu7t5v0__nor3_1
*CAP
1 *72:I 0.00011759
2 *68:ZN 0.00011759
3 *63:I *72:I 0.000215586
4 *11:14 *72:I 0
5 *13:21 *72:I 0.000132957
*RES
1 *68:ZN *72:I 18.99 
*END

*D_NET *16 0.00201996
*CONN
*I *73:I I *D gf180mcu_fd_sc_mcu7t5v0__clkbuf_3
*I *67:ZN O *D gf180mcu_fd_sc_mcu7t5v0__nand3_1
*CAP
1 *73:I 0.000683854
2 *67:ZN 0.000683854
3 cmnmos *73:I 0
4 *63:I *73:I 4.1318e-05
5 *67:A2 *73:I 4.07982e-05
6 *11:14 *73:I 0.000424343
7 *13:7 *73:I 8.44399e-05
8 *13:21 *73:I 6.13521e-05
*RES
1 *67:ZN *73:I 22.86 
*END

*D_NET *17 0.00213374
*CONN
*I *74:I I *D gf180mcu_fd_sc_mcu7t5v0__clkbuf_3
*I *66:ZN O *D gf180mcu_fd_sc_mcu7t5v0__nor3_1
*CAP
1 *74:I 0.000688479
2 *66:ZN 0.000688479
3 *20:I *74:I 0
4 *67:A3 *74:I 1.75736e-05
5 *1:12 *74:I 0.000569482
6 *10:8 *74:I 0
7 *12:8 *74:I 7.90603e-05
8 *14:8 *74:I 9.06653e-05
9 *14:23 *74:I 0
*RES
1 *66:ZN *74:I 23.13 
*END

*D_NET *18 0.00220994
*CONN
*I *75:I I *D gf180mcu_fd_sc_mcu7t5v0__clkbuf_3
*I *64:ZN O *D gf180mcu_fd_sc_mcu7t5v0__nand3_1
*CAP
1 *75:I 0.000534375
2 *64:ZN 0.000534375
3 *64:A2 *75:I 0.000105364
4 *64:A3 *75:I 0
5 *66:A1 *75:I 6.06361e-05
6 *67:A1 *75:I 7.76426e-05
7 *11:14 *75:I 0
8 *12:27 *75:I 0.000236371
9 *14:23 *75:I 0.00066117
*RES
1 *64:ZN *75:I 13.68 
*END
