*SPEF "ieee 1481-1999"
*DESIGN "user_project_wrapper"
*DATE "11:11:11 Fri 11 11, 1111"
*VENDOR "OpenRCX"
*PROGRAM "Parallel Extraction"
*VERSION "1.0"
*DESIGN_FLOW "NAME_SCOPE LOCAL" "PIN_CAP NONE"
*DIVIDER /
*DELIMITER :
*BUS_DELIMITER []
*T_UNIT 1 NS
*C_UNIT 1 PF
*R_UNIT 1 OHM
*L_UNIT 1 HENRY

*NAME_MAP
*1 io_in[0]
*2 io_in[10]
*3 io_in[11]
*4 io_in[12]
*5 io_in[13]
*6 io_in[14]
*7 io_in[15]
*8 io_in[16]
*9 io_in[17]
*10 io_in[18]
*11 io_in[19]
*12 io_in[1]
*13 io_in[20]
*14 io_in[21]
*15 io_in[22]
*16 io_in[23]
*17 io_in[24]
*18 io_in[25]
*19 io_in[26]
*20 io_in[27]
*21 io_in[28]
*22 io_in[29]
*23 io_in[2]
*24 io_in[30]
*25 io_in[31]
*26 io_in[32]
*27 io_in[33]
*28 io_in[34]
*29 io_in[35]
*30 io_in[36]
*31 io_in[37]
*32 io_in[3]
*33 io_in[4]
*34 io_in[5]
*35 io_in[6]
*36 io_in[7]
*37 io_in[8]
*38 io_in[9]
*39 io_oeb[0]
*40 io_oeb[10]
*41 io_oeb[11]
*42 io_oeb[12]
*43 io_oeb[13]
*44 io_oeb[14]
*45 io_oeb[15]
*46 io_oeb[16]
*47 io_oeb[17]
*48 io_oeb[18]
*49 io_oeb[19]
*50 io_oeb[1]
*51 io_oeb[20]
*52 io_oeb[21]
*53 io_oeb[22]
*54 io_oeb[23]
*55 io_oeb[24]
*56 io_oeb[25]
*57 io_oeb[26]
*58 io_oeb[27]
*59 io_oeb[28]
*60 io_oeb[29]
*61 io_oeb[2]
*62 io_oeb[30]
*63 io_oeb[31]
*64 io_oeb[32]
*65 io_oeb[33]
*66 io_oeb[34]
*67 io_oeb[35]
*68 io_oeb[36]
*69 io_oeb[37]
*70 io_oeb[3]
*71 io_oeb[4]
*72 io_oeb[5]
*73 io_oeb[6]
*74 io_oeb[7]
*75 io_oeb[8]
*76 io_oeb[9]
*77 io_out[0]
*78 io_out[10]
*79 io_out[11]
*80 io_out[12]
*81 io_out[13]
*82 io_out[14]
*83 io_out[15]
*84 io_out[16]
*85 io_out[17]
*86 io_out[18]
*87 io_out[19]
*88 io_out[1]
*89 io_out[20]
*90 io_out[21]
*91 io_out[22]
*92 io_out[23]
*93 io_out[24]
*94 io_out[25]
*95 io_out[26]
*96 io_out[27]
*97 io_out[28]
*98 io_out[29]
*99 io_out[2]
*100 io_out[30]
*101 io_out[31]
*102 io_out[32]
*103 io_out[33]
*104 io_out[34]
*105 io_out[35]
*106 io_out[36]
*107 io_out[37]
*108 io_out[3]
*109 io_out[4]
*110 io_out[5]
*111 io_out[6]
*112 io_out[7]
*113 io_out[8]
*114 io_out[9]
*115 la_data_in[0]
*116 la_data_in[10]
*117 la_data_in[11]
*118 la_data_in[12]
*119 la_data_in[13]
*120 la_data_in[14]
*121 la_data_in[15]
*122 la_data_in[16]
*123 la_data_in[17]
*124 la_data_in[18]
*125 la_data_in[19]
*126 la_data_in[1]
*127 la_data_in[20]
*128 la_data_in[21]
*129 la_data_in[22]
*130 la_data_in[23]
*131 la_data_in[24]
*132 la_data_in[25]
*133 la_data_in[26]
*134 la_data_in[27]
*135 la_data_in[28]
*136 la_data_in[29]
*137 la_data_in[2]
*138 la_data_in[30]
*139 la_data_in[31]
*140 la_data_in[32]
*141 la_data_in[33]
*142 la_data_in[34]
*143 la_data_in[35]
*144 la_data_in[36]
*145 la_data_in[37]
*146 la_data_in[38]
*147 la_data_in[39]
*148 la_data_in[3]
*149 la_data_in[40]
*150 la_data_in[41]
*151 la_data_in[42]
*152 la_data_in[43]
*153 la_data_in[44]
*154 la_data_in[45]
*155 la_data_in[46]
*156 la_data_in[47]
*157 la_data_in[48]
*158 la_data_in[49]
*159 la_data_in[4]
*160 la_data_in[50]
*161 la_data_in[51]
*162 la_data_in[52]
*163 la_data_in[53]
*164 la_data_in[54]
*165 la_data_in[55]
*166 la_data_in[56]
*167 la_data_in[57]
*168 la_data_in[58]
*169 la_data_in[59]
*170 la_data_in[5]
*171 la_data_in[60]
*172 la_data_in[61]
*173 la_data_in[62]
*174 la_data_in[63]
*175 la_data_in[6]
*176 la_data_in[7]
*177 la_data_in[8]
*178 la_data_in[9]
*179 la_data_out[0]
*180 la_data_out[10]
*181 la_data_out[11]
*182 la_data_out[12]
*183 la_data_out[13]
*184 la_data_out[14]
*185 la_data_out[15]
*186 la_data_out[16]
*187 la_data_out[17]
*188 la_data_out[18]
*189 la_data_out[19]
*190 la_data_out[1]
*191 la_data_out[20]
*192 la_data_out[21]
*193 la_data_out[22]
*194 la_data_out[23]
*195 la_data_out[24]
*196 la_data_out[25]
*197 la_data_out[26]
*198 la_data_out[27]
*199 la_data_out[28]
*200 la_data_out[29]
*201 la_data_out[2]
*202 la_data_out[30]
*203 la_data_out[31]
*204 la_data_out[32]
*205 la_data_out[33]
*206 la_data_out[34]
*207 la_data_out[35]
*208 la_data_out[36]
*209 la_data_out[37]
*210 la_data_out[38]
*211 la_data_out[39]
*212 la_data_out[3]
*213 la_data_out[40]
*214 la_data_out[41]
*215 la_data_out[42]
*216 la_data_out[43]
*217 la_data_out[44]
*218 la_data_out[45]
*219 la_data_out[46]
*220 la_data_out[47]
*221 la_data_out[48]
*222 la_data_out[49]
*223 la_data_out[4]
*224 la_data_out[50]
*225 la_data_out[51]
*226 la_data_out[52]
*227 la_data_out[53]
*228 la_data_out[54]
*229 la_data_out[55]
*230 la_data_out[56]
*231 la_data_out[57]
*232 la_data_out[58]
*233 la_data_out[59]
*234 la_data_out[5]
*235 la_data_out[60]
*236 la_data_out[61]
*237 la_data_out[62]
*238 la_data_out[63]
*239 la_data_out[6]
*240 la_data_out[7]
*241 la_data_out[8]
*242 la_data_out[9]
*243 la_oenb[0]
*244 la_oenb[10]
*245 la_oenb[11]
*246 la_oenb[12]
*247 la_oenb[13]
*248 la_oenb[14]
*249 la_oenb[15]
*250 la_oenb[16]
*251 la_oenb[17]
*252 la_oenb[18]
*253 la_oenb[19]
*254 la_oenb[1]
*255 la_oenb[20]
*256 la_oenb[21]
*257 la_oenb[22]
*258 la_oenb[23]
*259 la_oenb[24]
*260 la_oenb[25]
*261 la_oenb[26]
*262 la_oenb[27]
*263 la_oenb[28]
*264 la_oenb[29]
*265 la_oenb[2]
*266 la_oenb[30]
*267 la_oenb[31]
*268 la_oenb[32]
*269 la_oenb[33]
*270 la_oenb[34]
*271 la_oenb[35]
*272 la_oenb[36]
*273 la_oenb[37]
*274 la_oenb[38]
*275 la_oenb[39]
*276 la_oenb[3]
*277 la_oenb[40]
*278 la_oenb[41]
*279 la_oenb[42]
*280 la_oenb[43]
*281 la_oenb[44]
*282 la_oenb[45]
*283 la_oenb[46]
*284 la_oenb[47]
*285 la_oenb[48]
*286 la_oenb[49]
*287 la_oenb[4]
*288 la_oenb[50]
*289 la_oenb[51]
*290 la_oenb[52]
*291 la_oenb[53]
*292 la_oenb[54]
*293 la_oenb[55]
*294 la_oenb[56]
*295 la_oenb[57]
*296 la_oenb[58]
*297 la_oenb[59]
*298 la_oenb[5]
*299 la_oenb[60]
*300 la_oenb[61]
*301 la_oenb[62]
*302 la_oenb[63]
*303 la_oenb[6]
*304 la_oenb[7]
*305 la_oenb[8]
*306 la_oenb[9]
*307 user_clock2
*308 user_irq[0]
*309 user_irq[1]
*310 user_irq[2]
*313 wb_clk_i
*314 wb_rst_i
*315 wbs_ack_o
*316 wbs_adr_i[0]
*317 wbs_adr_i[10]
*318 wbs_adr_i[11]
*319 wbs_adr_i[12]
*320 wbs_adr_i[13]
*321 wbs_adr_i[14]
*322 wbs_adr_i[15]
*323 wbs_adr_i[16]
*324 wbs_adr_i[17]
*325 wbs_adr_i[18]
*326 wbs_adr_i[19]
*327 wbs_adr_i[1]
*328 wbs_adr_i[20]
*329 wbs_adr_i[21]
*330 wbs_adr_i[22]
*331 wbs_adr_i[23]
*332 wbs_adr_i[24]
*333 wbs_adr_i[25]
*334 wbs_adr_i[26]
*335 wbs_adr_i[27]
*336 wbs_adr_i[28]
*337 wbs_adr_i[29]
*338 wbs_adr_i[2]
*339 wbs_adr_i[30]
*340 wbs_adr_i[31]
*341 wbs_adr_i[3]
*342 wbs_adr_i[4]
*343 wbs_adr_i[5]
*344 wbs_adr_i[6]
*345 wbs_adr_i[7]
*346 wbs_adr_i[8]
*347 wbs_adr_i[9]
*348 wbs_cyc_i
*349 wbs_dat_i[0]
*350 wbs_dat_i[10]
*351 wbs_dat_i[11]
*352 wbs_dat_i[12]
*353 wbs_dat_i[13]
*354 wbs_dat_i[14]
*355 wbs_dat_i[15]
*356 wbs_dat_i[16]
*357 wbs_dat_i[17]
*358 wbs_dat_i[18]
*359 wbs_dat_i[19]
*360 wbs_dat_i[1]
*361 wbs_dat_i[20]
*362 wbs_dat_i[21]
*363 wbs_dat_i[22]
*364 wbs_dat_i[23]
*365 wbs_dat_i[24]
*366 wbs_dat_i[25]
*367 wbs_dat_i[26]
*368 wbs_dat_i[27]
*369 wbs_dat_i[28]
*370 wbs_dat_i[29]
*371 wbs_dat_i[2]
*372 wbs_dat_i[30]
*373 wbs_dat_i[31]
*374 wbs_dat_i[3]
*375 wbs_dat_i[4]
*376 wbs_dat_i[5]
*377 wbs_dat_i[6]
*378 wbs_dat_i[7]
*379 wbs_dat_i[8]
*380 wbs_dat_i[9]
*381 wbs_dat_o[0]
*382 wbs_dat_o[10]
*383 wbs_dat_o[11]
*384 wbs_dat_o[12]
*385 wbs_dat_o[13]
*386 wbs_dat_o[14]
*387 wbs_dat_o[15]
*388 wbs_dat_o[16]
*389 wbs_dat_o[17]
*390 wbs_dat_o[18]
*391 wbs_dat_o[19]
*392 wbs_dat_o[1]
*393 wbs_dat_o[20]
*394 wbs_dat_o[21]
*395 wbs_dat_o[22]
*396 wbs_dat_o[23]
*397 wbs_dat_o[24]
*398 wbs_dat_o[25]
*399 wbs_dat_o[26]
*400 wbs_dat_o[27]
*401 wbs_dat_o[28]
*402 wbs_dat_o[29]
*403 wbs_dat_o[2]
*404 wbs_dat_o[30]
*405 wbs_dat_o[31]
*406 wbs_dat_o[3]
*407 wbs_dat_o[4]
*408 wbs_dat_o[5]
*409 wbs_dat_o[6]
*410 wbs_dat_o[7]
*411 wbs_dat_o[8]
*412 wbs_dat_o[9]
*413 wbs_sel_i[0]
*414 wbs_sel_i[1]
*415 wbs_sel_i[2]
*416 wbs_sel_i[3]
*417 wbs_stb_i
*418 wbs_we_i
*419 mprj

*PORTS
io_in[0] I
io_in[10] I
io_in[11] I
io_in[12] I
io_in[13] I
io_in[14] I
io_in[15] I
io_in[16] I
io_in[17] I
io_in[18] I
io_in[19] I
io_in[1] I
io_in[20] I
io_in[21] I
io_in[22] I
io_in[23] I
io_in[24] I
io_in[25] I
io_in[26] I
io_in[27] I
io_in[28] I
io_in[29] I
io_in[2] I
io_in[30] I
io_in[31] I
io_in[32] I
io_in[33] I
io_in[34] I
io_in[35] I
io_in[36] I
io_in[37] I
io_in[3] I
io_in[4] I
io_in[5] I
io_in[6] I
io_in[7] I
io_in[8] I
io_in[9] I
io_oeb[0] O
io_oeb[10] O
io_oeb[11] O
io_oeb[12] O
io_oeb[13] O
io_oeb[14] O
io_oeb[15] O
io_oeb[16] O
io_oeb[17] O
io_oeb[18] O
io_oeb[19] O
io_oeb[1] O
io_oeb[20] O
io_oeb[21] O
io_oeb[22] O
io_oeb[23] O
io_oeb[24] O
io_oeb[25] O
io_oeb[26] O
io_oeb[27] O
io_oeb[28] O
io_oeb[29] O
io_oeb[2] O
io_oeb[30] O
io_oeb[31] O
io_oeb[32] O
io_oeb[33] O
io_oeb[34] O
io_oeb[35] O
io_oeb[36] O
io_oeb[37] O
io_oeb[3] O
io_oeb[4] O
io_oeb[5] O
io_oeb[6] O
io_oeb[7] O
io_oeb[8] O
io_oeb[9] O
io_out[0] O
io_out[10] O
io_out[11] O
io_out[12] O
io_out[13] O
io_out[14] O
io_out[15] O
io_out[16] O
io_out[17] O
io_out[18] O
io_out[19] O
io_out[1] O
io_out[20] O
io_out[21] O
io_out[22] O
io_out[23] O
io_out[24] O
io_out[25] O
io_out[26] O
io_out[27] O
io_out[28] O
io_out[29] O
io_out[2] O
io_out[30] O
io_out[31] O
io_out[32] O
io_out[33] O
io_out[34] O
io_out[35] O
io_out[36] O
io_out[37] O
io_out[3] O
io_out[4] O
io_out[5] O
io_out[6] O
io_out[7] O
io_out[8] O
io_out[9] O
la_data_in[0] I
la_data_in[10] I
la_data_in[11] I
la_data_in[12] I
la_data_in[13] I
la_data_in[14] I
la_data_in[15] I
la_data_in[16] I
la_data_in[17] I
la_data_in[18] I
la_data_in[19] I
la_data_in[1] I
la_data_in[20] I
la_data_in[21] I
la_data_in[22] I
la_data_in[23] I
la_data_in[24] I
la_data_in[25] I
la_data_in[26] I
la_data_in[27] I
la_data_in[28] I
la_data_in[29] I
la_data_in[2] I
la_data_in[30] I
la_data_in[31] I
la_data_in[32] I
la_data_in[33] I
la_data_in[34] I
la_data_in[35] I
la_data_in[36] I
la_data_in[37] I
la_data_in[38] I
la_data_in[39] I
la_data_in[3] I
la_data_in[40] I
la_data_in[41] I
la_data_in[42] I
la_data_in[43] I
la_data_in[44] I
la_data_in[45] I
la_data_in[46] I
la_data_in[47] I
la_data_in[48] I
la_data_in[49] I
la_data_in[4] I
la_data_in[50] I
la_data_in[51] I
la_data_in[52] I
la_data_in[53] I
la_data_in[54] I
la_data_in[55] I
la_data_in[56] I
la_data_in[57] I
la_data_in[58] I
la_data_in[59] I
la_data_in[5] I
la_data_in[60] I
la_data_in[61] I
la_data_in[62] I
la_data_in[63] I
la_data_in[6] I
la_data_in[7] I
la_data_in[8] I
la_data_in[9] I
la_data_out[0] O
la_data_out[10] O
la_data_out[11] O
la_data_out[12] O
la_data_out[13] O
la_data_out[14] O
la_data_out[15] O
la_data_out[16] O
la_data_out[17] O
la_data_out[18] O
la_data_out[19] O
la_data_out[1] O
la_data_out[20] O
la_data_out[21] O
la_data_out[22] O
la_data_out[23] O
la_data_out[24] O
la_data_out[25] O
la_data_out[26] O
la_data_out[27] O
la_data_out[28] O
la_data_out[29] O
la_data_out[2] O
la_data_out[30] O
la_data_out[31] O
la_data_out[32] O
la_data_out[33] O
la_data_out[34] O
la_data_out[35] O
la_data_out[36] O
la_data_out[37] O
la_data_out[38] O
la_data_out[39] O
la_data_out[3] O
la_data_out[40] O
la_data_out[41] O
la_data_out[42] O
la_data_out[43] O
la_data_out[44] O
la_data_out[45] O
la_data_out[46] O
la_data_out[47] O
la_data_out[48] O
la_data_out[49] O
la_data_out[4] O
la_data_out[50] O
la_data_out[51] O
la_data_out[52] O
la_data_out[53] O
la_data_out[54] O
la_data_out[55] O
la_data_out[56] O
la_data_out[57] O
la_data_out[58] O
la_data_out[59] O
la_data_out[5] O
la_data_out[60] O
la_data_out[61] O
la_data_out[62] O
la_data_out[63] O
la_data_out[6] O
la_data_out[7] O
la_data_out[8] O
la_data_out[9] O
la_oenb[0] I
la_oenb[10] I
la_oenb[11] I
la_oenb[12] I
la_oenb[13] I
la_oenb[14] I
la_oenb[15] I
la_oenb[16] I
la_oenb[17] I
la_oenb[18] I
la_oenb[19] I
la_oenb[1] I
la_oenb[20] I
la_oenb[21] I
la_oenb[22] I
la_oenb[23] I
la_oenb[24] I
la_oenb[25] I
la_oenb[26] I
la_oenb[27] I
la_oenb[28] I
la_oenb[29] I
la_oenb[2] I
la_oenb[30] I
la_oenb[31] I
la_oenb[32] I
la_oenb[33] I
la_oenb[34] I
la_oenb[35] I
la_oenb[36] I
la_oenb[37] I
la_oenb[38] I
la_oenb[39] I
la_oenb[3] I
la_oenb[40] I
la_oenb[41] I
la_oenb[42] I
la_oenb[43] I
la_oenb[44] I
la_oenb[45] I
la_oenb[46] I
la_oenb[47] I
la_oenb[48] I
la_oenb[49] I
la_oenb[4] I
la_oenb[50] I
la_oenb[51] I
la_oenb[52] I
la_oenb[53] I
la_oenb[54] I
la_oenb[55] I
la_oenb[56] I
la_oenb[57] I
la_oenb[58] I
la_oenb[59] I
la_oenb[5] I
la_oenb[60] I
la_oenb[61] I
la_oenb[62] I
la_oenb[63] I
la_oenb[6] I
la_oenb[7] I
la_oenb[8] I
la_oenb[9] I
user_clock2 I
user_irq[0] O
user_irq[1] O
user_irq[2] O
wb_clk_i I
wb_rst_i I
wbs_ack_o O
wbs_adr_i[0] I
wbs_adr_i[10] I
wbs_adr_i[11] I
wbs_adr_i[12] I
wbs_adr_i[13] I
wbs_adr_i[14] I
wbs_adr_i[15] I
wbs_adr_i[16] I
wbs_adr_i[17] I
wbs_adr_i[18] I
wbs_adr_i[19] I
wbs_adr_i[1] I
wbs_adr_i[20] I
wbs_adr_i[21] I
wbs_adr_i[22] I
wbs_adr_i[23] I
wbs_adr_i[24] I
wbs_adr_i[25] I
wbs_adr_i[26] I
wbs_adr_i[27] I
wbs_adr_i[28] I
wbs_adr_i[29] I
wbs_adr_i[2] I
wbs_adr_i[30] I
wbs_adr_i[31] I
wbs_adr_i[3] I
wbs_adr_i[4] I
wbs_adr_i[5] I
wbs_adr_i[6] I
wbs_adr_i[7] I
wbs_adr_i[8] I
wbs_adr_i[9] I
wbs_cyc_i I
wbs_dat_i[0] I
wbs_dat_i[10] I
wbs_dat_i[11] I
wbs_dat_i[12] I
wbs_dat_i[13] I
wbs_dat_i[14] I
wbs_dat_i[15] I
wbs_dat_i[16] I
wbs_dat_i[17] I
wbs_dat_i[18] I
wbs_dat_i[19] I
wbs_dat_i[1] I
wbs_dat_i[20] I
wbs_dat_i[21] I
wbs_dat_i[22] I
wbs_dat_i[23] I
wbs_dat_i[24] I
wbs_dat_i[25] I
wbs_dat_i[26] I
wbs_dat_i[27] I
wbs_dat_i[28] I
wbs_dat_i[29] I
wbs_dat_i[2] I
wbs_dat_i[30] I
wbs_dat_i[31] I
wbs_dat_i[3] I
wbs_dat_i[4] I
wbs_dat_i[5] I
wbs_dat_i[6] I
wbs_dat_i[7] I
wbs_dat_i[8] I
wbs_dat_i[9] I
wbs_dat_o[0] O
wbs_dat_o[10] O
wbs_dat_o[11] O
wbs_dat_o[12] O
wbs_dat_o[13] O
wbs_dat_o[14] O
wbs_dat_o[15] O
wbs_dat_o[16] O
wbs_dat_o[17] O
wbs_dat_o[18] O
wbs_dat_o[19] O
wbs_dat_o[1] O
wbs_dat_o[20] O
wbs_dat_o[21] O
wbs_dat_o[22] O
wbs_dat_o[23] O
wbs_dat_o[24] O
wbs_dat_o[25] O
wbs_dat_o[26] O
wbs_dat_o[27] O
wbs_dat_o[28] O
wbs_dat_o[29] O
wbs_dat_o[2] O
wbs_dat_o[30] O
wbs_dat_o[31] O
wbs_dat_o[3] O
wbs_dat_o[4] O
wbs_dat_o[5] O
wbs_dat_o[6] O
wbs_dat_o[7] O
wbs_dat_o[8] O
wbs_dat_o[9] O
wbs_sel_i[0] I
wbs_sel_i[1] I
wbs_sel_i[2] I
wbs_sel_i[3] I
wbs_stb_i I
wbs_we_i I

*D_NET *1 0.230039
*CONN
*P io_in[0] I
*I *419:io_in[0] I *D user_proj_example
*CAP
1 io_in[0] 0.000634268
2 *419:io_in[0] 0.000113178
3 *1:11 0.0397602
4 *1:10 0.039647
5 *1:8 0.0226415
6 *1:7 0.0232758
7 *1:8 *12:8 0.0987432
8 *1:8 *309:11 0.00522409
*RES
1 io_in[0] *1:7 8.685 
2 *1:7 *1:8 315.09 
3 *1:8 *1:10 4.5 
4 *1:10 *1:11 310.59 
5 *1:11 *419:io_in[0] 0.945 
*END

*D_NET *2 0.15184
*CONN
*P io_in[10] I
*I *419:io_in[10] I *D user_proj_example
*CAP
1 io_in[10] 0.000468685
2 *419:io_in[10] 0.000127495
3 *2:11 0.0491351
4 *2:10 0.0490076
5 *2:8 0.00868443
6 *2:7 0.00915311
7 *2:7 *7:14 4.35099e-06
8 *2:8 *3:8 0.0352591
*RES
1 io_in[10] *2:7 8.325 
2 *2:7 *2:8 111.33 
3 *2:8 *2:10 4.5 
4 *2:10 *2:11 310.95 
5 *2:11 *419:io_in[10] 0.945 
*END

*D_NET *3 0.196053
*CONN
*P io_in[11] I
*I *419:io_in[11] I *D user_proj_example
*CAP
1 io_in[11] 0.000509694
2 *419:io_in[11] 4.85048e-05
3 *3:11 0.0396884
4 *3:10 0.0396399
5 *3:8 0.00138407
6 *3:7 0.00189376
7 *3:8 *4:8 0.0528568
8 *3:8 *7:11 0.0247725
9 *2:8 *3:8 0.0352591
*RES
1 io_in[11] *3:7 8.505 
2 *3:7 *3:8 153.45 
3 *3:8 *3:10 4.5 
4 *3:10 *3:11 310.77 
5 *3:11 *419:io_in[11] 0.405 
*END

*D_NET *4 0.172273
*CONN
*P io_in[12] I
*I *419:io_in[12] I *D user_proj_example
*CAP
1 io_in[12] 0.000531237
2 *419:io_in[12] 0.00203109
3 *4:11 0.0399588
4 *4:10 0.0379277
5 *4:8 0.0135655
6 *4:7 0.0140967
7 *4:8 *7:11 0.0113055
8 *3:8 *4:8 0.0528568
*RES
1 io_in[12] *4:7 8.685 
2 *4:7 *4:8 198.27 
3 *4:8 *4:10 4.5 
4 *4:10 *4:11 297.18 
5 *4:11 *419:io_in[12] 16.155 
*END

*D_NET *5 0.274143
*CONN
*P io_in[13] I
*I *419:io_in[13] I *D user_proj_example
*CAP
1 io_in[13] 0.000990725
2 *419:io_in[13] 0.00196641
3 *5:11 0.0393694
4 *5:10 0.037403
5 *5:8 0.00150945
6 *5:7 0.00250018
7 *5:8 *42:10 0.0861673
8 *5:8 *43:14 0.010016
9 *5:8 *76:14 0.00023898
10 *5:8 *81:10 0.0913338
11 *5:8 *114:10 0.00264761
*RES
1 io_in[13] *5:7 12.465 
2 *5:7 *5:8 240.39 
3 *5:8 *5:10 4.5 
4 *5:10 *5:11 293.4 
5 *5:11 *419:io_in[13] 15.615 
*END

*D_NET *6 0.312821
*CONN
*P io_in[14] I
*I *419:io_in[14] I *D user_proj_example
*CAP
1 io_in[14] 0.00126385
2 *419:io_in[14] 0.00190174
3 *6:11 0.0392708
4 *6:10 0.037369
5 *6:8 0.00286629
6 *6:7 0.00413014
7 *6:8 *43:14 0.105536
8 *6:8 *44:14 0.108686
9 *6:8 *76:14 0.000211485
10 *6:8 *78:14 0.000806356
11 *6:8 *81:10 0.0105982
12 *6:8 *82:10 0.000180383
*RES
1 io_in[14] *6:7 12.645 
2 *6:7 *6:8 282.51 
3 *6:8 *6:10 4.5 
4 *6:10 *6:11 293.22 
5 *6:11 *419:io_in[14] 15.075 
*END

*D_NET *7 0.187596
*CONN
*P io_in[15] I
*I *419:io_in[15] I *D user_proj_example
*CAP
1 io_in[15] 0.00279716
2 *419:io_in[15] 0.000934272
3 *7:14 0.0416144
4 *7:13 0.0406801
5 *7:11 0.0313451
6 *7:10 0.0341422
7 *2:7 *7:14 4.35099e-06
8 *3:8 *7:11 0.0247725
9 *4:8 *7:11 0.0113055
*RES
1 io_in[15] *7:10 31.455 
2 *7:10 *7:11 299.25 
3 *7:11 *7:13 4.5 
4 *7:13 *7:14 317.07 
5 *7:14 *419:io_in[15] 11.205 
*END

*D_NET *8 0.203316
*CONN
*P io_in[16] I
*I *419:io_in[16] I *D user_proj_example
*CAP
1 io_in[16] 0.000523307
2 *419:io_in[16] 0.00447112
3 *8:11 0.0405436
4 *8:10 0.0360725
5 *8:8 0.0160434
6 *8:7 0.0165667
7 *8:8 *45:14 0.0890953
*RES
1 io_in[16] *8:7 8.505 
2 *8:7 *8:8 233.91 
3 *8:8 *8:10 4.5 
4 *8:10 *8:11 278.46 
5 *8:11 *419:io_in[16] 33.975 
*END

*D_NET *9 0.129772
*CONN
*P io_in[17] I
*I *419:io_in[17] I *D user_proj_example
*CAP
1 io_in[17] 0.0011068
2 *419:io_in[17] 0.00527627
3 *9:14 0.0216242
4 *9:13 0.016348
5 *9:11 0.0346161
6 *9:10 0.0346161
7 *9:8 0.00753902
8 *9:7 0.00864583
*RES
1 io_in[17] *9:7 12.825 
2 *9:7 *9:8 58.77 
3 *9:8 *9:10 4.5 
4 *9:10 *9:11 267.39 
5 *9:11 *9:13 4.5 
6 *9:13 *9:14 103.95 
7 *9:14 *419:io_in[17] 44.595 
*END

*D_NET *10 0.10539
*CONN
*P io_in[18] I
*I *419:io_in[18] I *D user_proj_example
*CAP
1 io_in[18] 0.0011068
2 *419:io_in[18] 0.00126302
3 *10:14 0.00664819
4 *10:11 0.0438854
5 *10:10 0.0385002
6 *10:8 0.00644
7 *10:7 0.0075468
*RES
1 io_in[18] *10:7 12.825 
2 *10:7 *10:8 49.59 
3 *10:8 *10:10 4.5 
4 *10:10 *10:11 297.09 
5 *10:11 *10:14 45.99 
6 *10:14 *419:io_in[18] 13.905 
*END

*D_NET *11 0.0890301
*CONN
*P io_in[19] I
*I *419:io_in[19] I *D user_proj_example
*CAP
1 io_in[19] 0.000178873
2 *419:io_in[19] 0.00265684
3 *11:13 0.0428677
4 *11:11 0.0403897
5 *419:io_in[19] *48:10 0.00293698
*RES
1 io_in[19] *11:11 2.115 
2 *11:11 *11:13 310.77 
3 *11:13 *419:io_in[19] 32.175 
*END

*D_NET *12 0.274825
*CONN
*P io_in[1] I
*I *419:io_in[1] I *D user_proj_example
*CAP
1 io_in[1] 0.00061271
2 *419:io_in[1] 4.85048e-05
3 *12:11 0.039708
4 *12:10 0.0396595
5 *12:8 0.00288778
6 *12:7 0.00350049
7 *12:8 *23:8 0.0821814
8 *12:8 *309:11 0.00748312
9 *1:8 *12:8 0.0987432
*RES
1 io_in[1] *12:7 8.505 
2 *12:7 *12:8 272.97 
3 *12:8 *12:10 4.5 
4 *12:10 *12:11 310.77 
5 *12:11 *419:io_in[1] 0.405 
*END

*D_NET *13 0.0947499
*CONN
*P io_in[20] I
*I *419:io_in[20] I *D user_proj_example
*CAP
1 io_in[20] 0.0367219
2 *419:io_in[20] 0.00425177
3 *13:8 0.0106531
4 *13:7 0.00640128
5 *13:5 0.0367219
*RES
1 io_in[20] *13:5 283.725 
2 *13:5 *13:7 4.5 
3 *13:7 *13:8 49.41 
4 *13:8 *419:io_in[20] 36.855 
*END

*D_NET *14 0.112987
*CONN
*P io_in[21] I
*I *419:io_in[21] I *D user_proj_example
*CAP
1 io_in[21] 0.00180472
2 *419:io_in[21] 0.00443663
3 *14:19 0.00850227
4 *14:14 0.0188403
5 *14:13 0.0147747
6 *14:11 0.0314118
7 *14:10 0.0332165
*RES
1 io_in[21] *14:10 22.635 
2 *14:10 *14:11 242.55 
3 *14:11 *14:13 4.5 
4 *14:13 *14:14 114.93 
5 *14:14 *14:19 35.91 
6 *14:19 *419:io_in[21] 33.705 
*END

*D_NET *15 0.176947
*CONN
*P io_in[22] I
*I *419:io_in[22] I *D user_proj_example
*CAP
1 io_in[22] 0.000477344
2 *419:io_in[22] 0.00112143
3 *15:11 0.0407671
4 *15:10 0.0396457
5 *15:8 0.0138834
6 *15:7 0.0143607
7 *419:io_in[22] *52:8 0
8 *419:io_in[22] *90:8 0.000175817
9 *15:8 *53:14 0.0665153
*RES
1 io_in[22] *15:7 8.145 
2 *15:7 *15:8 189.45 
3 *15:8 *15:10 4.5 
4 *15:10 *15:11 305.91 
5 *15:11 *419:io_in[22] 16.695 
*END

*D_NET *16 0.27649
*CONN
*P io_in[23] I
*I *419:io_in[23] I *D user_proj_example
*CAP
1 io_in[23] 0.000523307
2 *419:io_in[23] 0.000914106
3 *16:11 0.040509
4 *16:10 0.0395948
5 *16:8 0.00461239
6 *16:7 0.00513569
7 *419:io_in[23] *52:8 0
8 *419:io_in[23] *90:8 0.000138445
9 *16:8 *53:14 0.0900499
10 *16:8 *54:10 0.0950125
*RES
1 io_in[23] *16:7 8.505 
2 *16:7 *16:8 260.73 
3 *16:8 *16:10 4.5 
4 *16:10 *16:11 305.55 
5 *16:11 *419:io_in[23] 16.155 
*END

*D_NET *17 0.161346
*CONN
*P io_in[24] I
*I *419:io_in[24] I *D user_proj_example
*CAP
1 io_in[24] 0.00192467
2 *419:io_in[24] 0.0390068
3 *17:10 0.0390068
4 *17:8 0.0397418
5 *17:7 0.0416664
*RES
1 io_in[24] *17:7 18.765 
2 *17:7 *17:8 306.63 
3 *17:8 *17:10 4.5 
4 *17:10 *419:io_in[24] 306.765 
*END

*D_NET *18 0.169106
*CONN
*P io_in[25] I
*I *419:io_in[25] I *D user_proj_example
*CAP
1 io_in[25] 0.000125876
2 *419:io_in[25] 0.0419398
3 *18:18 0.0419398
4 *18:16 0.0338101
5 *18:15 0.0338101
6 *18:13 0.00867707
7 *18:11 0.00880295
*RES
1 io_in[25] *18:11 1.395 
2 *18:11 *18:13 54.81 
3 *18:13 *18:15 4.5 
4 *18:15 *18:16 260.55 
5 *18:16 *18:18 4.5 
6 *18:18 *419:io_in[25] 266.265 
*END

*D_NET *19 0.138061
*CONN
*P io_in[26] I
*I *419:io_in[26] I *D user_proj_example
*CAP
1 io_in[26] 0.00123679
2 *419:io_in[26] 0.039738
3 *19:10 0.039738
4 *19:8 0.0280558
5 *19:7 0.0292926
6 *19:8 *21:8 0
7 *19:8 *58:8 0
8 *19:8 *96:8 0
*RES
1 io_in[26] *19:7 13.365 
2 *19:7 *19:8 215.91 
3 *19:8 *19:10 4.5 
4 *19:10 *419:io_in[26] 312.165 
*END

*D_NET *20 0.126693
*CONN
*P io_in[27] I
*I *419:io_in[27] I *D user_proj_example
*CAP
1 io_in[27] 0.00035683
2 *419:io_in[27] 0.0297841
3 *20:18 0.0297841
4 *20:16 0.0219238
5 *20:15 0.0219238
6 *20:13 0.011282
7 *20:11 0.0116388
*RES
1 io_in[27] *20:11 3.015 
2 *20:11 *20:13 87.21 
3 *20:13 *20:15 4.5 
4 *20:15 *20:16 168.21 
5 *20:16 *20:18 4.5 
6 *20:18 *419:io_in[27] 233.865 
*END

*D_NET *21 0.146118
*CONN
*P io_in[28] I
*I *419:io_in[28] I *D user_proj_example
*CAP
1 io_in[28] 0.00130883
2 *419:io_in[28] 0.0398933
3 *21:10 0.0398933
4 *21:8 0.00844302
5 *21:7 0.00975185
6 *21:8 *58:8 0.0461926
7 *21:8 *60:8 0.000635245
8 *19:8 *21:8 0
*RES
1 io_in[28] *21:7 11.925 
2 *21:7 *21:8 125.19 
3 *21:8 *21:10 4.5 
4 *21:10 *419:io_in[28] 313.605 
*END

*D_NET *22 0.139076
*CONN
*P io_in[29] I
*I *419:io_in[29] I *D user_proj_example
*CAP
1 io_in[29] 0.000908804
2 *419:io_in[29] 0.0400742
3 *22:10 0.0400742
4 *22:8 0.000792283
5 *22:7 0.00170109
6 *22:8 *56:8 0.0016612
7 *22:8 *57:8 0.000394594
8 *22:8 *59:8 0.0283737
9 *22:8 *95:8 0.00266969
10 *22:8 *98:8 0.0224258
*RES
1 io_in[29] *22:7 10.845 
2 *22:7 *22:8 79.83 
3 *22:8 *22:10 4.5 
4 *22:10 *419:io_in[29] 314.685 
*END

*D_NET *23 0.243272
*CONN
*P io_in[2] I
*I *419:io_in[2] I *D user_proj_example
*CAP
1 io_in[2] 0.000591152
2 *419:io_in[2] 0.00214468
3 *23:11 0.0399954
4 *23:10 0.0378507
5 *23:8 0.00203644
6 *23:7 0.00262759
7 *23:8 *32:8 0.0645391
8 *23:8 *309:11 0.0113055
9 *12:8 *23:8 0.0821814
*RES
1 io_in[2] *23:7 8.325 
2 *23:7 *23:8 228.15 
3 *23:8 *23:10 4.5 
4 *23:10 *23:11 297.54 
5 *23:11 *419:io_in[2] 16.155 
*END

*D_NET *24 0.0981616
*CONN
*P io_in[30] I
*I *419:io_in[30] I *D user_proj_example
*CAP
1 io_in[30] 0.00353735
2 *419:io_in[30] 0.039958
3 *24:10 0.039958
4 *24:8 0.00353735
5 *24:8 io_out[30] 0.000617205
6 *24:8 *60:8 0.0105537
*RES
1 io_in[30] *24:8 45.855 
2 *24:8 *24:10 4.5 
3 *24:10 *419:io_in[30] 314.145 
*END

*D_NET *25 0.0849345
*CONN
*P io_in[31] I
*I *419:io_in[31] I *D user_proj_example
*CAP
1 io_in[31] 0.00177706
2 *419:io_in[31] 0.00183087
3 *25:9 0.040551
4 *25:7 0.0404972
5 *419:io_in[31] *101:10 0.000278271
*RES
1 io_in[31] *25:7 13.185 
2 *25:7 *25:9 304.56 
3 *25:9 *419:io_in[31] 23.895 
*END

*D_NET *26 0.121245
*CONN
*P io_in[32] I
*I *419:io_in[32] I *D user_proj_example
*CAP
1 io_in[32] 0.000323383
2 *419:io_in[32] 0.000509694
3 *26:16 0.00160688
4 *26:15 0.00109718
5 *26:13 0.0404958
6 *26:11 0.0408192
7 *26:16 *63:10 0.0135031
8 *26:16 *65:8 0.000977522
9 *26:16 *101:10 0.00133269
10 *26:16 *102:8 0.0200946
11 *26:16 *104:8 0.00048484
*RES
1 io_in[32] *26:11 3.015 
2 *26:11 *26:13 317.07 
3 *26:13 *26:15 4.5 
4 *26:15 *26:16 58.77 
5 *26:16 *419:io_in[32] 8.505 
*END

*D_NET *27 0.108409
*CONN
*P io_in[33] I
*I *419:io_in[33] I *D user_proj_example
*CAP
1 io_in[33] 0.00194183
2 *419:io_in[33] 0.0390411
3 *27:10 0.0390411
4 *27:8 0.0132217
5 *27:7 0.0151635
*RES
1 io_in[33] *27:7 18.765 
2 *27:7 *27:8 101.43 
3 *27:8 *27:10 4.5 
4 *27:10 *419:io_in[33] 306.765 
*END

*D_NET *28 0.121111
*CONN
*P io_in[34] I
*I *419:io_in[34] I *D user_proj_example
*CAP
1 io_in[34] 0.00377196
2 *419:io_in[34] 0.0374415
3 *28:18 0.0374415
4 *28:16 0.0193421
5 *28:15 0.0231141
*RES
1 io_in[34] *28:15 34.245 
2 *28:15 *28:16 148.41 
3 *28:16 *28:18 4.5 
4 *28:18 *419:io_in[34] 293.265 
*END

*D_NET *29 0.132064
*CONN
*P io_in[35] I
*I *419:io_in[35] I *D user_proj_example
*CAP
1 io_in[35] 0.00117627
2 *419:io_in[35] 0.0398582
3 *29:10 0.0398582
4 *29:8 0.0249976
5 *29:7 0.0261738
*RES
1 io_in[35] *29:7 13.365 
2 *29:7 *29:8 192.15 
3 *29:8 *29:10 4.5 
4 *29:10 *419:io_in[35] 312.165 
*END

*D_NET *30 0.27123
*CONN
*P io_in[36] I
*I *419:io_in[36] I *D user_proj_example
*CAP
1 io_in[36] 0.00177706
2 *419:io_in[36] 0.000578382
3 *30:12 0.00283042
4 *30:11 0.00225204
5 *30:9 0.0399042
6 *30:7 0.0416812
7 *30:12 *31:16 0.00673034
8 *30:12 *64:8 0.00133269
9 *30:12 *67:8 0.0842962
10 *30:12 *106:8 0.0898475
*RES
1 io_in[36] *30:7 13.185 
2 *30:7 *30:9 304.2 
3 *30:9 *30:11 4.5 
4 *30:11 *30:12 238.05 
5 *30:12 *419:io_in[36] 8.505 
*END

*D_NET *31 0.255549
*CONN
*P io_in[37] I
*I *419:io_in[37] I *D user_proj_example
*CAP
1 io_in[37] 0.000323383
2 *419:io_in[37] 0.000585143
3 *31:16 0.0243145
4 *31:15 0.0237294
5 *31:13 0.0417833
6 *31:11 0.0421067
7 *31:13 *398:8 0
8 *31:16 *66:8 0.00053813
9 *31:16 *67:8 0.00263116
10 *31:16 *103:8 0.000438875
11 *31:16 *105:8 0.000996519
12 *31:16 *107:8 0.111372
13 *30:12 *31:16 0.00673034
*RES
1 io_in[37] *31:11 3.015 
2 *31:11 *31:13 317.07 
3 *31:13 *31:15 4.5 
4 *31:15 *31:16 285.57 
5 *31:16 *419:io_in[37] 8.505 
*END

*D_NET *32 0.212549
*CONN
*P io_in[3] I
*I *419:io_in[3] I *D user_proj_example
*CAP
1 io_in[3] 0.00056961
2 *419:io_in[3] 0.00206284
3 *32:11 0.0399317
4 *32:10 0.0378688
5 *32:8 0.00200558
6 *32:7 0.00257519
7 *32:8 *33:8 0.0479943
8 *32:8 *238:15 0.00826783
9 *32:8 *309:11 0.00673354
10 *23:8 *32:8 0.0645391
*RES
1 io_in[3] *32:7 8.145 
2 *32:7 *32:8 186.03 
3 *32:8 *32:10 4.5 
4 *32:10 *32:11 297.72 
5 *32:11 *419:io_in[3] 15.615 
*END

*D_NET *33 0.165884
*CONN
*P io_in[4] I
*I *419:io_in[4] I *D user_proj_example
*CAP
1 io_in[4] 0.000618205
2 *419:io_in[4] 0.00201689
3 *33:11 0.0399053
4 *33:10 0.0378884
5 *33:8 0.0071503
6 *33:7 0.00776851
7 *33:8 *238:15 0.0225423
8 *32:8 *33:8 0.0479943
*RES
1 io_in[4] *33:7 7.965 
2 *33:7 *33:8 143.91 
3 *33:8 *33:10 4.5 
4 *33:10 *33:11 297.9 
5 *33:11 *419:io_in[4] 15.075 
*END

*D_NET *34 0.134119
*CONN
*P io_in[5] I
*I *419:io_in[5] I *D user_proj_example
*CAP
1 io_in[5] 0.00473446
2 *419:io_in[5] 0.00047098
3 *34:12 0.00745691
4 *34:11 0.00698593
5 *34:9 0.0350953
6 *34:7 0.0398298
7 *34:12 *39:8 0.00482238
8 *34:12 *50:8 0.00164635
9 *34:12 *77:8 0.000348326
10 *34:12 *88:8 0.000599972
11 *34:12 *110:8 0.0321288
*RES
1 io_in[5] *34:7 37.305 
2 *34:7 *34:9 274.32 
3 *34:9 *34:11 4.5 
4 *34:11 *34:12 103.59 
5 *34:12 *419:io_in[5] 8.325 
*END

*D_NET *35 0.12341
*CONN
*P io_in[6] I
*I *419:io_in[6] I *D user_proj_example
*CAP
1 io_in[6] 0.000370905
2 *419:io_in[6] 0.000535653
3 *35:16 0.001552
4 *35:15 0.00101635
5 *35:13 0.0395558
6 *35:11 0.0399267
7 *35:16 *70:8 0.000826339
8 *35:16 *72:8 0.0217839
9 *35:16 *108:8 0.00110599
10 *35:16 *109:8 0.000658643
11 *35:16 *111:8 0.0160775
*RES
1 io_in[6] *35:11 3.195 
2 *35:11 *35:13 310.41 
3 *35:13 *35:15 4.5 
4 *35:15 *35:16 62.55 
5 *35:16 *419:io_in[6] 8.865 
*END

*D_NET *36 0.0856252
*CONN
*P io_in[7] I
*I *419:io_in[7] I *D user_proj_example
*CAP
1 io_in[7] 0.000167227
2 *419:io_in[7] 0.00252284
3 *36:13 0.042079
4 *36:11 0.0397233
5 *419:io_in[7] *73:10 0.000580909
6 *419:io_in[7] *111:8 0.000551954
*RES
1 io_in[7] *36:11 2.115 
2 *36:11 *36:13 310.77 
3 *36:13 *419:io_in[7] 31.815 
*END

*D_NET *37 0.0887
*CONN
*P io_in[8] I
*I *419:io_in[8] I *D user_proj_example
*CAP
1 io_in[8] 0.00355547
2 *419:io_in[8] 0.00196641
3 *37:11 0.0392919
4 *37:10 0.040881
5 *37:10 io_oeb[7] 0.000660656
6 *37:10 *38:8 0.000966346
7 *37:10 *75:14 0.000936501
8 *37:10 *113:12 0.00044173
*RES
1 io_in[8] *37:10 44.415 
2 *37:10 *37:11 293.04 
3 *37:11 *419:io_in[8] 15.615 
*END

*D_NET *38 0.12877
*CONN
*P io_in[9] I
*I *419:io_in[9] I *D user_proj_example
*CAP
1 io_in[9] 0.00130083
2 *419:io_in[9] 0.00190174
3 *38:11 0.0392684
4 *38:10 0.0373666
5 *38:8 0.00085102
6 *38:7 0.00215185
7 *38:7 *80:11 7.5709e-06
8 *38:8 *40:14 3.98656e-05
9 *38:8 *41:10 0.00146121
10 *38:8 *75:14 0.0188325
11 *38:8 *79:14 0.000648729
12 *38:8 *114:10 0.0239735
13 *37:10 *38:8 0.000966346
*RES
1 io_in[9] *38:7 12.465 
2 *38:7 *38:8 69.21 
3 *38:8 *38:10 4.5 
4 *38:10 *38:11 293.4 
5 *38:11 *419:io_in[9] 15.075 
*END

*D_NET *39 0.240702
*CONN
*P io_oeb[0] O
*I *419:io_oeb[0] O *D user_proj_example
*CAP
1 io_oeb[0] 0.0408979
2 *419:io_oeb[0] 0.00050971
3 *39:10 0.0408979
4 *39:8 0.0228845
5 *39:7 0.0233942
6 io_oeb[0] *310:8 0
7 *39:8 *50:8 0.0879054
8 *39:8 *77:8 0.0186501
9 *39:8 *88:8 0.000740212
10 *34:12 *39:8 0.00482238
*RES
1 *419:io_oeb[0] *39:7 8.505 
2 *39:7 *39:8 287.73 
3 *39:8 *39:10 4.5 
4 *39:10 io_oeb[0] 310.725 
*END

*D_NET *40 0.151003
*CONN
*P io_oeb[10] O
*I *419:io_oeb[10] O *D user_proj_example
*CAP
1 io_oeb[10] 0.000910504
2 *419:io_oeb[10] 0.00190174
3 *40:14 0.0105721
4 *40:13 0.00966157
5 *40:11 0.0375431
6 *40:9 0.0394449
7 *40:14 *75:14 0.00104068
8 *40:14 *79:14 0.0498885
9 *38:8 *40:14 3.98656e-05
*RES
1 *419:io_oeb[10] *40:9 15.075 
2 *40:9 *40:11 294.3 
3 *40:11 *40:13 4.5 
4 *40:13 *40:14 140.49 
5 *40:14 io_oeb[10] 11.565 
*END

*D_NET *41 0.219455
*CONN
*P io_oeb[11] O
*I *419:io_oeb[11] O *D user_proj_example
*CAP
1 io_oeb[11] 0.000936432
2 *419:io_oeb[11] 0.000113178
3 *41:10 0.00271459
4 *41:9 0.00177815