*SPEF "ieee 1481-1999"
*DESIGN "user_proj_example"
*DATE "11:11:11 Fri 11 11, 1111"
*VENDOR "OpenRCX"
*PROGRAM "Parallel Extraction"
*VERSION "1.0"
*DESIGN_FLOW "NAME_SCOPE LOCAL" "PIN_CAP NONE"
*DIVIDER /
*DELIMITER :
*BUS_DELIMITER []
*T_UNIT 1 NS
*C_UNIT 1 PF
*R_UNIT 1 OHM
*L_UNIT 1 HENRY

*NAME_MAP
*1 io_in[0]
*2 io_in[10]
*3 io_in[11]
*4 io_in[12]
*5 io_in[13]
*6 io_in[14]
*7 io_in[15]
*8 io_in[16]
*9 io_in[17]
*10 io_in[18]
*11 io_in[19]
*12 io_in[1]
*13 io_in[20]
*14 io_in[21]
*15 io_in[22]
*16 io_in[23]
*17 io_in[24]
*18 io_in[25]
*19 io_in[26]
*20 io_in[27]
*21 io_in[28]
*22 io_in[29]
*23 io_in[2]
*24 io_in[30]
*25 io_in[31]
*26 io_in[32]
*27 io_in[33]
*28 io_in[34]
*29 io_in[35]
*30 io_in[36]
*31 io_in[37]
*32 io_in[3]
*33 io_in[4]
*34 io_in[5]
*35 io_in[6]
*36 io_in[7]
*37 io_in[8]
*38 io_in[9]
*39 net196
*40 net58
*41 net203
*42 net204
*43 net205
*44 net206
*45 net59
*46 net60
*47 net61
*48 net62
*49 net63
*50 net197
*51 net64
*52 net207
*53 net208
*54 net65
*55 net66
*56 net209
*57 net67
*58 net68
*59 net69
*60 net70
*61 net198
*62 net71
*63 net72
*64 net210
*65 net211
*66 net212
*67 net213
*68 net214
*69 net215
*70 net199
*71 net200
*72 net201
*73 net202
*74 net55
*75 net56
*76 net57
*77 net73
*78 io_out[10]
*79 net80
*80 net81
*81 net82
*82 net83
*83 net84
*84 net85
*85 net216
*86 net217
*87 net218
*88 net74
*89 net86
*90 net87
*91 net88
*92 io_out[23]
*93 io_out[24]
*94 net89
*95 net90
*96 net91
*97 net92
*98 io_out[29]
*99 net75
*100 io_out[30]
*101 io_out[31]
*102 net219
*103 net220
*104 net221
*105 net93
*106 net94
*107 net95
*108 net76
*109 net77
*110 net78
*111 net79
*112 io_out[7]
*113 io_out[8]
*114 io_out[9]
*115 net96
*116 net97
*117 net98
*118 la_data_in[0]
*119 la_data_in[10]
*120 la_data_in[11]
*121 la_data_in[12]
*122 la_data_in[13]
*123 la_data_in[14]
*124 la_data_in[15]
*125 la_data_in[16]
*126 la_data_in[17]
*127 la_data_in[18]
*128 la_data_in[19]
*129 la_data_in[1]
*130 la_data_in[20]
*131 la_data_in[21]
*132 la_data_in[22]
*133 la_data_in[23]
*134 la_data_in[24]
*135 la_data_in[25]
*136 la_data_in[26]
*137 la_data_in[27]
*138 la_data_in[28]
*139 la_data_in[29]
*140 la_data_in[2]
*141 la_data_in[30]
*142 la_data_in[31]
*143 la_data_in[32]
*144 la_data_in[33]
*145 la_data_in[34]
*146 la_data_in[35]
*147 la_data_in[36]
*148 la_data_in[37]
*149 la_data_in[38]
*150 la_data_in[39]
*151 la_data_in[3]
*152 la_data_in[40]
*153 la_data_in[41]
*154 la_data_in[42]
*155 la_data_in[43]
*156 la_data_in[44]
*157 la_data_in[45]
*158 la_data_in[46]
*159 la_data_in[47]
*160 la_data_in[48]
*161 la_data_in[49]
*162 la_data_in[4]
*163 la_data_in[50]
*164 la_data_in[51]
*165 la_data_in[52]
*166 la_data_in[53]
*167 la_data_in[54]
*168 la_data_in[55]
*169 la_data_in[56]
*170 la_data_in[57]
*171 la_data_in[58]
*172 la_data_in[59]
*173 la_data_in[5]
*174 la_data_in[60]
*175 la_data_in[61]
*176 la_data_in[62]
*177 la_data_in[63]
*178 la_data_in[6]
*179 la_data_in[7]
*180 la_data_in[8]
*181 la_data_in[9]
*182 net99
*183 net109
*184 net110
*185 net111
*186 net112
*187 net113
*188 net114
*189 net115
*190 net116
*191 net117
*192 net118
*193 net100
*194 net119
*195 net120
*196 net121
*197 net122
*198 net123
*199 net124
*200 net125
*201 net126
*202 net127
*203 net128
*204 net101
*205 net129
*206 net130
*207 net131
*208 net132
*209 net133
*210 net134
*211 net135
*212 net136
*213 net137
*214 net138
*215 net102
*216 net139
*217 net140
*218 net141
*219 net142
*220 net143
*221 net144
*222 net145
*223 net146
*224 net147
*225 net148
*226 net103
*227 net149
*228 net150
*229 net151
*230 net152
*231 net153
*232 net154
*233 net155
*234 net156
*235 net157
*236 net158
*237 net104
*238 net159
*239 net160
*240 net161
*241 net162
*242 net105
*243 net106
*244 net107
*245 net108
*246 la_oenb[0]
*247 la_oenb[10]
*248 la_oenb[11]
*249 la_oenb[12]
*250 la_oenb[13]
*251 la_oenb[14]
*252 la_oenb[15]
*253 la_oenb[16]
*254 la_oenb[17]
*255 la_oenb[18]
*256 la_oenb[19]
*257 la_oenb[1]
*258 la_oenb[20]
*259 la_oenb[21]
*260 la_oenb[22]
*261 la_oenb[23]
*262 la_oenb[24]
*263 la_oenb[25]
*264 la_oenb[26]
*265 la_oenb[27]
*266 la_oenb[28]
*267 la_oenb[29]
*268 la_oenb[2]
*269 la_oenb[30]
*270 la_oenb[31]
*271 la_oenb[32]
*272 la_oenb[33]
*273 la_oenb[34]
*274 la_oenb[35]
*275 la_oenb[36]
*276 la_oenb[37]
*277 la_oenb[38]
*278 la_oenb[39]
*279 la_oenb[3]
*280 la_oenb[40]
*281 la_oenb[41]
*282 la_oenb[42]
*283 la_oenb[43]
*284 la_oenb[44]
*285 la_oenb[45]
*286 la_oenb[46]
*287 la_oenb[47]
*288 la_oenb[48]
*289 la_oenb[49]
*290 la_oenb[4]
*291 la_oenb[50]
*292 la_oenb[51]
*293 la_oenb[52]
*294 la_oenb[53]
*295 la_oenb[54]
*296 la_oenb[55]
*297 la_oenb[56]
*298 la_oenb[57]
*299 la_oenb[58]
*300 la_oenb[59]
*301 la_oenb[5]
*302 la_oenb[60]
*303 la_oenb[61]
*304 la_oenb[62]
*305 la_oenb[63]
*306 la_oenb[6]
*307 la_oenb[7]
*308 la_oenb[8]
*309 la_oenb[9]
*312 wb_clk_i
*313 wb_rst_i
*314 net163
*315 wbs_adr_i[0]
*316 wbs_adr_i[10]
*317 wbs_adr_i[11]
*318 wbs_adr_i[12]
*319 wbs_adr_i[13]
*320 wbs_adr_i[14]
*321 wbs_adr_i[15]
*322 wbs_adr_i[16]
*323 wbs_adr_i[17]
*324 wbs_adr_i[18]
*325 wbs_adr_i[19]
*326 wbs_adr_i[1]
*327 wbs_adr_i[20]
*328 wbs_adr_i[21]
*329 wbs_adr_i[22]
*330 wbs_adr_i[23]
*331 wbs_adr_i[24]
*332 wbs_adr_i[25]
*333 wbs_adr_i[26]
*334 wbs_adr_i[27]
*335 wbs_adr_i[28]
*336 wbs_adr_i[29]
*337 wbs_adr_i[2]
*338 wbs_adr_i[30]
*339 wbs_adr_i[31]
*340 wbs_adr_i[3]
*341 wbs_adr_i[4]
*342 wbs_adr_i[5]
*343 wbs_adr_i[6]
*344 wbs_adr_i[7]
*345 wbs_adr_i[8]
*346 wbs_adr_i[9]
*347 wbs_cyc_i
*348 wbs_dat_i[0]
*349 wbs_dat_i[10]
*350 wbs_dat_i[11]
*351 wbs_dat_i[12]
*352 wbs_dat_i[13]
*353 wbs_dat_i[14]
*354 wbs_dat_i[15]
*355 wbs_dat_i[16]
*356 wbs_dat_i[17]
*357 wbs_dat_i[18]
*358 wbs_dat_i[19]
*359 wbs_dat_i[1]
*360 wbs_dat_i[20]
*361 wbs_dat_i[21]
*362 wbs_dat_i[22]
*363 wbs_dat_i[23]
*364 wbs_dat_i[24]
*365 wbs_dat_i[25]
*366 wbs_dat_i[26]
*367 wbs_dat_i[27]
*368 wbs_dat_i[28]
*369 wbs_dat_i[29]
*370 wbs_dat_i[2]
*371 wbs_dat_i[30]
*372 wbs_dat_i[31]
*373 wbs_dat_i[3]
*374 wbs_dat_i[4]
*375 wbs_dat_i[5]
*376 wbs_dat_i[6]
*377 wbs_dat_i[7]
*378 wbs_dat_i[8]
*379 wbs_dat_i[9]
*380 net164
*381 net174
*382 net175
*383 net176
*384 net177
*385 net178
*386 net179
*387 net180
*388 net181
*389 net182
*390 net183
*391 net165
*392 net184
*393 net185
*394 net186
*395 net187
*396 net188
*397 net189
*398 net190
*399 net191
*400 net192
*401 net193
*402 net166
*403 net194
*404 net195
*405 net167
*406 net168
*407 net169
*408 net170
*409 net171
*410 net172
*411 net173
*412 wbs_sel_i[0]
*413 wbs_sel_i[1]
*414 wbs_sel_i[2]
*415 wbs_sel_i[3]
*416 wbs_stb_i
*417 wbs_we_i
*418 _0000_
*419 _0001_
*420 _0002_
*421 _0003_
*422 _0004_
*423 _0005_
*424 _0006_
*425 _0007_
*426 _0008_
*427 _0009_
*428 _0010_
*429 _0011_
*430 _0012_
*431 _0013_
*432 _0014_
*433 _0015_
*434 _0016_
*435 _0017_
*436 _0018_
*437 _0019_
*438 _0020_
*439 _0021_
*440 _0022_
*441 _0023_
*442 _0024_
*443 _0025_
*444 _0026_
*445 _0027_
*446 _0028_
*447 _0029_
*448 _0030_
*449 _0031_
*450 _0032_
*451 _0033_
*452 _0034_
*453 _0035_
*454 _0036_
*455 _0037_
*456 _0038_
*457 _0039_
*458 _0040_
*459 _0041_
*460 _0042_
*461 _0043_
*462 _0044_
*463 _0045_
*464 _0046_
*465 _0047_
*466 _0048_
*467 _0049_
*468 _0050_
*469 _0051_
*470 _0052_
*471 _0053_
*472 _0054_
*473 _0055_
*474 _0056_
*475 _0057_
*476 _0058_
*477 _0059_
*478 _0060_
*479 _0061_
*480 _0062_
*481 _0063_
*482 _0064_
*483 _0065_
*484 _0066_
*485 _0067_
*486 _0068_
*487 _0069_
*488 _0070_
*489 _0071_
*490 _0072_
*491 _0073_
*492 _0074_
*493 _0075_
*494 _0076_
*495 _0077_
*496 _0078_
*497 _0079_
*498 _0080_
*499 _0081_
*500 _0082_
*501 _0083_
*502 _0084_
*503 _0085_
*504 _0086_
*505 _0087_
*506 _0088_
*507 _0089_
*508 _0090_
*509 _0091_
*510 _0092_
*511 _0093_
*512 _0094_
*513 _0095_
*514 _0096_
*515 _0097_
*516 _0098_
*517 _0099_
*518 _0100_
*519 _0101_
*520 _0102_
*521 _0103_
*522 _0104_
*523 _0105_
*524 _0106_
*525 _0107_
*526 _0108_
*527 _0109_
*528 _0110_
*529 _0111_
*530 _0112_
*531 _0113_
*532 _0114_
*533 _0115_
*534 _0116_
*535 _0117_
*536 _0118_
*537 _0119_
*538 _0120_
*539 _0121_
*540 _0122_
*541 _0123_
*542 _0124_
*543 _0125_
*544 _0126_
*545 _0127_
*546 _0128_
*547 _0129_
*548 _0130_
*549 _0131_
*550 _0132_
*551 _0133_
*552 _0134_
*553 _0135_
*554 _0136_
*555 _0137_
*556 _0138_
*557 _0139_
*558 _0140_
*559 _0141_
*560 _0142_
*561 _0143_
*562 _0144_
*563 _0145_
*564 _0146_
*565 _0147_
*566 _0148_
*567 _0149_
*568 _0150_
*569 _0151_
*570 _0152_
*571 _0153_
*572 _0154_
*573 _0155_
*574 _0156_
*575 _0157_
*576 _0158_
*577 _0159_
*578 _0160_
*579 _0161_
*580 _0162_
*581 _0163_
*582 _0164_
*583 _0165_
*584 _0166_
*585 _0167_
*586 _0168_
*587 _0169_
*588 _0170_
*589 _0171_
*590 _0172_
*591 _0173_
*592 _0174_
*593 _0175_
*594 _0176_
*595 _0177_
*596 _0178_
*597 _0179_
*598 _0180_
*599 _0181_
*600 _0182_
*601 _0183_
*602 _0184_
*603 _0185_
*604 _0186_
*605 _0187_
*606 _0188_
*607 _0189_
*608 _0190_
*609 _0191_
*610 _0192_
*611 _0193_
*612 _0194_
*613 _0195_
*614 _0196_
*615 _0197_
*616 _0198_
*617 _0199_
*618 _0200_
*619 _0201_
*620 _0202_
*621 _0203_
*622 _0204_
*623 _0205_
*624 _0206_
*625 _0207_
*626 _0208_
*627 _0209_
*628 _0210_
*629 _0211_
*630 _0212_
*631 _0213_
*632 _0214_
*633 _0215_
*634 _0216_
*635 _0217_
*636 _0218_
*637 _0219_
*638 _0220_
*639 _0221_
*640 _0222_
*641 _0223_
*642 _0224_
*643 _0225_
*644 _0226_
*645 _0227_
*646 _0228_
*647 _0229_
*648 _0230_
*649 _0231_
*650 _0232_
*651 _0233_
*652 _0234_
*653 _0235_
*654 _0236_
*655 _0237_
*656 _0238_
*657 _0239_
*658 _0240_
*659 _0241_
*660 _0242_
*661 _0243_
*662 _0244_
*663 _0245_
*664 _0246_
*665 _0247_
*666 _0248_
*667 _0249_
*668 _0250_
*669 _0251_
*670 _0252_
*671 _0253_
*672 _0254_
*673 _0255_
*674 _0256_
*675 _0257_
*676 _0258_
*677 _0259_
*678 _0260_
*679 _0261_
*680 _0262_
*681 _0263_
*682 _0264_
*683 _0265_
*684 _0266_
*685 _0267_
*686 _0268_
*687 _0269_
*688 _0270_
*689 _0271_
*690 _0272_
*691 _0273_
*692 _0274_
*693 _0275_
*694 _0276_
*695 _0277_
*696 _0278_
*697 _0279_
*698 _0280_
*699 _0281_
*700 _0282_
*701 _0283_
*702 _0284_
*703 _0285_
*704 _0286_
*705 _0287_
*706 _0288_
*707 _0289_
*708 _0290_
*709 _0291_
*710 _0292_
*711 _0293_
*712 _0294_
*713 _0295_
*714 _0296_
*715 _0297_
*716 _0298_
*717 _0299_
*718 _0300_
*719 _0301_
*720 _0302_
*721 _0303_
*722 _0304_
*723 _0305_
*724 _0306_
*725 _0307_
*726 _0308_
*727 _0309_
*728 _0310_
*729 _0311_
*730 _0312_
*731 _0313_
*732 _0314_
*733 _0315_
*734 _0316_
*735 _0317_
*736 _0318_
*737 _0319_
*738 _0320_
*739 _0321_
*740 _0322_
*741 _0323_
*742 _0324_
*743 _0325_
*744 _0326_
*745 _0327_
*746 _0328_
*747 _0329_
*748 _0330_
*749 _0331_
*750 _0332_
*751 _0333_
*752 _0334_
*753 _0335_
*754 _0336_
*755 _0337_
*756 _0338_
*757 _0339_
*758 _0340_
*759 _0341_
*760 _0342_
*761 _0343_
*762 _0344_
*763 _0345_
*764 _0346_
*765 _0347_
*766 _0348_
*767 _0349_
*768 _0350_
*769 _0351_
*770 _0352_
*771 _0353_
*772 _0354_
*773 _0355_
*774 _0356_
*775 _0357_
*776 _0358_
*777 _0359_
*778 _0360_
*779 _0361_
*780 _0362_
*781 _0363_
*782 _0364_
*783 _0365_
*784 _0366_
*785 _0367_
*786 _0368_
*787 _0369_
*788 _0370_
*789 _0371_
*790 _0372_
*791 _0373_
*792 _0374_
*793 _0375_
*794 _0376_
*795 _0377_
*796 _0378_
*797 _0379_
*798 _0380_
*799 _0381_
*800 _0382_
*801 _0383_
*802 _0384_
*803 _0385_
*804 _0386_
*805 _0387_
*806 _0388_
*807 _0389_
*808 _0390_
*809 _0391_
*810 _0392_
*811 _0393_
*812 _0394_
*813 _0395_
*814 _0396_
*815 _0397_
*816 _0398_
*817 _0399_
*818 _0400_
*819 _0401_
*820 _0402_
*821 _0403_
*822 _0404_
*823 _0405_
*824 _0406_
*825 _0407_
*826 _0408_
*827 _0409_
*828 _0410_
*829 _0411_
*830 _0412_
*831 _0413_
*832 _0414_
*833 _0415_
*834 _0416_
*835 _0417_
*836 _0418_
*837 _0419_
*838 _0420_
*839 _0421_
*840 _0422_
*841 _0423_
*842 _0424_
*843 _0425_
*844 _0426_
*845 _0427_
*846 _0428_
*847 _0429_
*848 _0430_
*849 _0431_
*850 _0432_
*851 _0433_
*852 _0434_
*853 _0435_
*854 _0436_
*855 _0437_
*856 _0438_
*857 _0439_
*858 _0440_
*859 _0441_
*860 _0442_
*861 _0443_
*862 _0444_
*863 _0445_
*864 _0446_
*865 _0447_
*866 _0448_
*867 _0449_
*868 _0450_
*869 _0451_
*870 _0452_
*871 _0453_
*872 _0454_
*873 _0455_
*874 _0456_
*875 _0457_
*876 _0458_
*877 _0459_
*878 _0460_
*879 _0461_
*880 _0462_
*881 _0463_
*882 _0464_
*883 _0465_
*884 _0466_
*885 _0467_
*886 _0468_
*887 _0469_
*888 _0470_
*889 _0471_
*890 _0472_
*891 _0473_
*892 _0474_
*893 _0475_
*894 _0476_
*895 _0477_
*896 _0478_
*897 _0479_
*898 _0480_
*899 _0481_
*900 _0482_
*901 _0483_
*902 _0484_
*903 _0485_
*904 _0486_
*905 _0487_
*906 _0488_
*907 _0489_
*908 _0490_
*909 _0491_
*910 _0492_
*911 _0493_
*912 _0494_
*913 _0495_
*914 _0496_
*915 _0497_
*916 _0498_
*917 _0499_
*918 _0500_
*919 _0501_
*920 _0502_
*921 _0503_
*922 _0504_
*923 _0505_
*924 _0506_
*925 _0507_
*926 _0508_
*927 _0509_
*928 _0510_
*929 _0511_
*930 _0512_
*931 _0513_
*932 _0514_
*933 _0515_
*934 _0516_
*935 _0517_
*936 _0518_
*937 _0519_
*938 _0520_
*939 _0521_
*940 _0522_
*941 _0523_
*942 _0524_
*943 _0525_
*944 _0526_
*945 _0527_
*946 _0528_
*947 _0529_
*948 _0530_
*949 _0531_
*950 _0532_
*951 _0533_
*952 _0534_
*953 _0535_
*954 _0536_
*955 _0537_
*956 _0538_
*957 _0539_
*958 _0540_
*959 _0541_
*960 _0542_
*961 _0543_
*962 _0544_
*963 _0545_
*964 _0546_
*965 _0547_
*966 _0548_
*967 _0549_
*968 _0550_
*969 _0551_
*970 _0552_
*971 _0553_
*972 _0554_
*973 _0555_
*974 _0556_
*975 _0557_
*976 _0558_
*977 _0559_
*978 _0560_
*979 _0561_
*980 _0562_
*981 _0563_
*982 _0564_
*983 _0565_
*984 _0566_
*985 _0567_
*986 _0568_
*987 _0569_
*988 _0570_
*989 _0571_
*990 _0572_
*991 _0573_
*992 _0574_
*993 _0575_
*994 _0576_
*995 _0577_
*996 _0578_
*997 _0579_
*998 _0580_
*999 _0581_
*1000 _0582_
*1001 _0583_
*1002 _0584_
*1003 _0585_
*1004 _0586_
*1005 _0587_
*1006 _0588_
*1007 _0589_
*1008 _0590_
*1009 _0591_
*1010 _0592_
*1011 _0593_
*1012 _0594_
*1013 _0595_
*1014 _0596_
*1015 _0597_
*1016 _0598_
*1017 _0599_
*1018 _0600_
*1019 _0601_
*1020 _0602_
*1021 _0603_
*1022 _0604_
*1023 _0605_
*1024 _0606_
*1025 _0607_
*1026 _0608_
*1027 _0609_
*1028 _0610_
*1029 _0611_
*1030 _0612_
*1031 _0613_
*1032 _0614_
*1033 _0615_
*1034 _0616_
*1035 _0617_
*1036 _0618_
*1037 _0619_
*1038 _0620_
*1039 _0621_
*1040 _0622_
*1041 _0623_
*1042 _0624_
*1043 _0625_
*1044 _0626_
*1045 _0627_
*1046 _0628_
*1047 _0629_
*1048 _0630_
*1049 _0631_
*1050 _0632_
*1051 _0633_
*1052 _0634_
*1053 _0635_
*1054 _0636_
*1055 _0637_
*1056 _0638_
*1057 _0639_
*1058 _0640_
*1059 _0641_
*1060 _0642_
*1061 _0643_
*1062 _0644_
*1063 _0645_
*1064 _0646_
*1065 _0647_
*1066 _0648_
*1067 _0649_
*1068 _0650_
*1069 _0651_
*1070 _0652_
*1071 _0653_
*1072 _0654_
*1073 _0655_
*1074 _0656_
*1075 _0657_
*1076 _0658_
*1077 _0659_
*1078 _0660_
*1079 _0661_
*1080 _0662_
*1081 _0663_
*1082 _0664_
*1083 _0665_
*1084 _0666_
*1085 _0667_
*1086 _0668_
*1087 _0669_
*1088 _0670_
*1089 _0671_
*1090 _0672_
*1091 _0673_
*1092 _0674_
*1093 _0675_
*1094 _0676_
*1095 _0677_
*1096 _0678_
*1097 _0679_
*1098 _0680_
*1099 _0681_
*1100 _0682_
*1101 _0683_
*1102 _0684_
*1103 _0685_
*1104 _0686_
*1105 _0687_
*1106 _0688_
*1107 _0689_
*1108 _0690_
*1109 _0691_
*1110 _0692_
*1111 _0693_
*1112 _0694_
*1113 _0695_
*1114 _0696_
*1115 _0697_
*1116 _0698_
*1117 _0699_
*1118 _0700_
*1119 _0701_
*1120 _0702_
*1121 _0703_
*1122 _0704_
*1123 _0705_
*1124 _0706_
*1125 _0707_
*1126 _0708_
*1127 _0709_
*1128 _0710_
*1129 _0711_
*1130 _0712_
*1131 _0713_
*1132 _0714_
*1133 _0715_
*1134 _0716_
*1135 _0717_
*1136 _0718_
*1137 _0719_
*1138 _0720_
*1139 _0721_
*1140 _0722_
*1141 _0723_
*1142 _0724_
*1143 _0725_
*1144 _0726_
*1145 _0727_
*1146 _0728_
*1147 _0729_
*1148 _0730_
*1149 _0731_
*1150 _0732_
*1151 _0733_
*1152 _0734_
*1153 _0735_
*1154 _0736_
*1155 _0737_
*1156 _0738_
*1157 _0739_
*1158 _0740_
*1159 _0741_
*1160 _0742_
*1161 _0743_
*1162 _0744_
*1163 _0745_
*1164 _0746_
*1165 _0747_
*1166 _0748_
*1167 _0749_
*1168 _0750_
*1169 _0751_
*1170 _0752_
*1171 _0753_
*1172 _0754_
*1173 _0755_
*1174 _0756_
*1175 _0757_
*1176 _0758_
*1177 _0759_
*1178 _0760_
*1179 _0761_
*1180 _0762_
*1181 _0763_
*1182 _0764_
*1183 _0765_
*1184 _0766_
*1185 _0767_
*1186 _0768_
*1187 _0769_
*1188 _0770_
*1189 _0771_
*1190 _0772_
*1191 _0773_
*1192 _0774_
*1193 _0775_
*1194 _0776_
*1195 _0777_
*1196 _0778_
*1197 _0779_
*1198 _0780_
*1199 _0781_
*1200 _0782_
*1201 _0783_
*1202 _0784_
*1203 _0785_
*1204 _0786_
*1205 _0787_
*1206 _0788_
*1207 _0789_
*1208 _0790_
*1209 _0791_
*1210 _0792_
*1211 _0793_
*1212 _0794_
*1213 _0795_
*1214 _0796_
*1215 _0797_
*1216 _0798_
*1217 _0799_
*1218 _0800_
*1219 _0801_
*1220 _0802_
*1221 _0803_
*1222 _0804_
*1223 _0805_
*1224 _0806_
*1225 _0807_
*1226 _0808_
*1227 _0809_
*1228 _0810_
*1229 _0811_
*1230 _0812_
*1231 _0813_
*1232 _0814_
*1233 _0815_
*1234 _0816_
*1235 _0817_
*1236 _0818_
*1237 _0819_
*1238 _0820_
*1239 _0821_
*1240 _0822_
*1241 _0823_
*1242 _0824_
*1243 _0825_
*1244 _0826_
*1245 _0827_
*1246 _0828_
*1247 _0829_
*1248 _0830_
*1249 _0831_
*1250 _0832_
*1251 _0833_
*1252 _0834_
*1253 _0835_
*1254 _0836_
*1255 _0837_
*1256 _0838_
*1257 _0839_
*1258 _0840_
*1259 _0841_
*1260 _0842_
*1261 _0843_
*1262 _0844_
*1263 _0845_
*1264 _0846_
*1265 _0847_
*1266 _0848_
*1267 _0849_
*1268 _0850_
*1269 _0851_
*1270 _0852_
*1271 _0853_
*1272 _0854_
*1273 _0855_
*1274 _0856_
*1275 _0857_
*1276 _0858_
*1277 _0859_
*1278 _0860_
*1279 _0861_
*1280 _0862_
*1281 _0863_
*1282 _0864_
*1283 _0865_
*1284 _0866_
*1285 _0867_
*1286 _0868_
*1287 _0869_
*1288 _0870_
*1289 _0871_
*1290 _0872_
*1291 _0873_
*1292 _0874_
*1293 _0875_
*1294 _0876_
*1295 _0877_
*1296 _0878_
*1297 _0879_
*1298 _0880_
*1299 _0881_
*1300 _0882_
*1301 _0883_
*1302 _0884_
*1303 _0885_
*1304 _0886_
*1305 _0887_
*1306 _0888_
*1307 _0889_
*1308 _0890_
*1309 _0891_
*1310 _0892_
*1311 _0893_
*1312 _0894_
*1313 _0895_
*1314 _0896_
*1315 _0897_
*1316 _0898_
*1317 _0899_
*1318 _0900_
*1319 _0901_
*1320 _0902_
*1321 _0903_
*1322 _0904_
*1323 _0905_
*1324 _0906_
*1325 _0907_
*1326 _0908_
*1327 _0909_
*1328 _0910_
*1329 _0911_
*1330 _0912_
*1331 _0913_
*1332 _0914_
*1333 _0915_
*1334 _0916_
*1335 _0917_
*1336 _0918_
*1337 _0919_
*1338 _0920_
*1339 _0921_
*1340 _0922_
*1341 _0923_
*1342 _0924_
*1343 _0925_
*1344 _0926_
*1345 _0927_
*1346 _0928_
*1347 _0929_
*1348 _0930_
*1349 _0931_
*1350 _0932_
*1351 _0933_
*1352 _0934_
*1353 _0935_
*1354 _0936_
*1355 _0937_
*1356 _0938_
*1357 _0939_
*1358 _0940_
*1359 _0941_
*1360 _0942_
*1361 _0943_
*1362 _0944_
*1363 _0945_
*1364 _0946_
*1365 _0947_
*1366 _0948_
*1367 _0949_
*1368 _0950_
*1369 _0951_
*1370 _0952_
*1371 _0953_
*1372 _0954_
*1373 _0955_
*1374 _0956_
*1375 _0957_
*1376 _0958_
*1377 _0959_
*1378 _0960_
*1379 _0961_
*1380 _0962_
*1381 _0963_
*1382 _0964_
*1383 _0965_
*1384 _0966_
*1385 _0967_
*1386 _0968_
*1387 _0969_
*1388 _0970_
*1389 _0971_
*1390 _0972_
*1391 _0973_
*1392 _0974_
*1393 _0975_
*1394 _0976_
*1395 _0977_
*1396 _0978_
*1397 _0979_
*1398 _0980_
*1399 _0981_
*1400 _0982_
*1401 _0983_
*1402 _0984_
*1403 _0985_
*1404 _0986_
*1405 _0987_
*1406 _0988_
*1407 _0989_
*1408 _0990_
*1409 _0991_
*1410 _0992_
*1411 _0993_
*1412 _0994_
*1413 _0995_
*1414 _0996_
*1415 _0997_
*1416 _0998_
*1417 _0999_
*1418 _1000_
*1419 _1001_
*1420 _1002_
*1421 _1003_
*1422 _1004_
*1423 _1005_
*1424 _1006_
*1425 _1007_
*1426 _1008_
*1427 _1009_
*1428 _1010_
*1429 _1011_
*1430 _1012_
*1431 _1013_
*1432 _1014_
*1433 _1015_
*1434 _1016_
*1435 _1017_
*1436 _1018_
*1437 _1019_
*1438 _1020_
*1439 _1021_
*1440 _1022_
*1441 _1023_
*1442 _1024_
*1443 _1025_
*1444 _1026_
*1445 _1027_
*1446 _1028_
*1447 _1029_
*1448 _1030_
*1449 _1031_
*1450 _1032_
*1451 _1033_
*1452 _1034_
*1453 _1035_
*1454 _1036_
*1455 _1037_
*1456 _1038_
*1457 _1039_
*1458 _1040_
*1459 _1041_
*1460 _1042_
*1461 _1043_
*1462 _1044_
*1463 _1045_
*1464 _1046_
*1465 _1047_
*1466 _1048_
*1467 _1049_
*1468 _1050_
*1469 _1051_
*1470 _1052_
*1471 _1053_
*1472 _1054_
*1473 _1055_
*1474 _1056_
*1475 _1057_
*1476 _1058_
*1477 _1059_
*1478 _1060_
*1479 _1061_
*1480 _1062_
*1481 _1063_
*1482 _1064_
*1483 _1065_
*1484 _1066_
*1485 _1067_
*1486 _1068_
*1487 _1069_
*1488 _1070_
*1489 _1071_
*1490 _1072_
*1491 _1073_
*1492 _1074_
*1493 _1075_
*1494 _1076_
*1495 _1077_
*1496 _1078_
*1497 _1079_
*1498 _1080_
*1499 _1081_
*1500 _1082_
*1501 _1083_
*1502 _1084_
*1503 _1085_
*1504 _1086_
*1505 _1087_
*1506 _1088_
*1507 _1089_
*1508 _1090_
*1509 _1091_
*1510 _1092_
*1511 _1093_
*1512 _1094_
*1513 _1095_
*1514 _1096_
*1515 _1097_
*1516 _1098_
*1517 _1099_
*1518 _1100_
*1519 _1101_
*1520 _1102_
*1521 _1103_
*1522 _1104_
*1523 _1105_
*1524 _1106_
*1525 _1107_
*1526 _1108_
*1527 _1109_
*1528 _1110_
*1529 _1111_
*1530 _1112_
*1531 _1113_
*1532 _1114_
*1533 _1115_
*1534 _1116_
*1535 _1117_
*1536 _1118_
*1537 _1119_
*1538 _1120_
*1539 _1121_
*1540 _1122_
*1541 _1123_
*1542 _1124_
*1543 _1125_
*1544 _1126_
*1545 _1127_
*1546 _1128_
*1547 _1129_
*1548 _1130_
*1549 _1131_
*1550 _1132_
*1551 _1133_
*1552 _1134_
*1553 _1135_
*1554 _1136_
*1555 _1137_
*1556 _1138_
*1557 _1139_
*1558 _1140_
*1559 _1141_
*1560 _1142_
*1561 _1143_
*1562 _1144_
*1563 _1145_
*1564 _1146_
*1565 _1147_
*1566 _1148_
*1567 _1149_
*1568 _1150_
*1569 _1151_
*1570 _1152_
*1571 _1153_
*1572 _1154_
*1573 _1155_
*1574 _1156_
*1575 _1157_
*1576 _1158_
*1577 _1159_
*1578 _1160_
*1579 _1161_
*1580 _1162_
*1581 _1163_
*1582 _1164_
*1583 _1165_
*1584 _1166_
*1585 _1167_
*1586 _1168_
*1587 _1169_
*1588 _1170_
*1589 _1171_
*1590 _1172_
*1591 _1173_
*1592 _1174_
*1593 _1175_
*1594 _1176_
*1595 _1177_
*1596 _1178_
*1597 _1179_
*1598 _1180_
*1599 _1181_
*1600 _1182_
*1601 _1183_
*1602 _1184_
*1603 _1185_
*1604 _1186_
*1605 _1187_
*1606 _1188_
*1607 _1189_
*1608 _1190_
*1609 _1191_
*1610 _1192_
*1611 _1193_
*1612 _1194_
*1613 _1195_
*1614 _1196_
*1615 _1197_
*1616 _1198_
*1617 _1199_
*1618 _1200_
*1619 _1201_
*1620 _1202_
*1621 _1203_
*1622 _1204_
*1623 _1205_
*1624 _1206_
*1625 _1207_
*1626 _1208_
*1627 _1209_
*1628 _1210_
*1629 _1211_
*1630 _1212_
*1631 _1213_
*1632 _1214_
*1633 _1215_
*1634 _1216_
*1635 _1217_
*1636 _1218_
*1637 _1219_
*1638 _1220_
*1639 _1221_
*1640 _1222_
*1641 _1223_
*1642 _1224_
*1643 _1225_
*1644 _1226_
*1645 _1227_
*1646 _1228_
*1647 _1229_
*1648 _1230_
*1649 _1231_
*1650 _1232_
*1651 _1233_
*1652 _1234_
*1653 _1235_
*1654 _1236_
*1655 _1237_
*1656 _1238_
*1657 _1239_
*1658 _1240_
*1659 _1241_
*1660 _1242_
*1661 _1243_
*1662 _1244_
*1663 _1245_
*1664 _1246_
*1665 _1247_
*1666 _1248_
*1667 _1249_
*1668 _1250_
*1669 _1251_
*1670 _1252_
*1671 _1253_
*1672 _1254_
*1673 _1255_
*1674 _1256_
*1675 _1257_
*1676 _1258_
*1677 _1259_
*1678 _1260_
*1679 _1261_
*1680 _1262_
*1681 _1263_
*1682 _1264_
*1683 _1265_
*1684 _1266_
*1685 _1267_
*1686 _1268_
*1687 _1269_
*1688 _1270_
*1689 _1271_
*1690 _1272_
*1691 _1273_
*1692 _1274_
*1693 _1275_
*1694 _1276_
*1695 _1277_
*1696 _1278_
*1697 _1279_
*1698 _1280_
*1699 _1281_
*1700 _1282_
*1701 _1283_
*1702 _1284_
*1703 _1285_
*1704 _1286_
*1705 _1287_
*1706 _1288_
*1707 _1289_
*1708 _1290_
*1709 _1291_
*1710 _1292_
*1711 _1293_
*1712 _1294_
*1713 _1295_
*1714 _1296_
*1715 _1297_
*1716 _1298_
*1717 _1299_
*1718 _1300_
*1719 _1301_
*1720 _1302_
*1721 _1303_
*1722 _1304_
*1723 _1305_
*1724 _1306_
*1725 _1307_
*1726 _1308_
*1727 _1309_
*1728 _1310_
*1729 _1311_
*1730 _1312_
*1731 _1313_
*1732 _1314_
*1733 _1315_
*1734 _1316_
*1735 _1317_
*1736 _1318_
*1737 _1319_
*1738 _1320_
*1739 _1321_
*1740 _1322_
*1741 _1323_
*1742 _1324_
*1743 _1325_
*1744 _1326_
*1745 _1327_
*1746 _1328_
*1747 _1329_
*1748 _1330_
*1749 _1331_
*1750 _1332_
*1751 _1333_
*1752 _1334_
*1753 _1335_
*1754 _1336_
*1755 _1337_
*1756 _1338_
*1757 _1339_
*1758 _1340_
*1759 _1341_
*1760 _1342_
*1761 _1343_
*1762 _1344_
*1763 _1345_
*1764 _1346_
*1765 _1347_
*1766 _1348_
*1767 _1349_
*1768 _1350_
*1769 _1351_
*1770 _1352_
*1771 _1353_
*1772 _1354_
*1773 _1355_
*1774 _1356_
*1775 _1357_
*1776 _1358_
*1777 _1359_
*1778 _1360_
*1779 _1361_
*1780 _1362_
*1781 _1363_
*1782 _1364_
*1783 _1365_
*1784 _1366_
*1785 _1367_
*1786 _1368_
*1787 _1369_
*1788 _1370_
*1789 _1371_
*1790 _1372_
*1791 _1373_
*1792 _1374_
*1793 _1375_
*1794 _1376_
*1795 _1377_
*1796 _1378_
*1797 _1379_
*1798 _1380_
*1799 _1381_
*1800 _1382_
*1801 _1383_
*1802 _1384_
*1803 _1385_
*1804 _1386_
*1805 _1387_
*1806 _1388_
*1807 _1389_
*1808 _1390_
*1809 _1391_
*1810 _1392_
*1811 _1393_
*1812 _1394_
*1813 _1395_
*1814 _1396_
*1815 _1397_
*1816 _1398_
*1817 _1399_
*1818 _1400_
*1819 _1401_
*1820 _1402_
*1821 _1403_
*1822 _1404_
*1823 _1405_
*1824 _1406_
*1825 _1407_
*1826 _1408_
*1827 _1409_
*1828 _1410_
*1829 _1411_
*1830 _1412_
*1831 _1413_
*1832 _1414_
*1833 _1415_
*1834 _1416_
*1835 _1417_
*1836 _1418_
*1837 _1419_
*1838 _1420_
*1839 _1421_
*1840 _1422_
*1841 _1423_
*1842 _1424_
*1843 _1425_
*1844 _1426_
*1845 _1427_
*1846 _1428_
*1847 _1429_
*1848 _1430_
*1849 _1431_
*1850 _1432_
*1851 _1433_
*1852 _1434_
*1853 _1435_
*1854 _1436_
*1855 _1437_
*1856 _1438_
*1857 _1439_
*1858 _1440_
*1859 _1441_
*1860 _1442_
*1861 _1443_
*1862 _1444_
*1863 _1445_
*1864 _1446_
*1865 _1447_
*1866 _1448_
*1867 _1449_
*1868 _1450_
*1869 _1451_
*1870 _1452_
*1871 _1453_
*1872 _1454_
*1873 _1455_
*1874 _1456_
*1875 _1457_
*1876 _1458_
*1877 _1459_
*1878 _1460_
*1879 _1461_
*1880 _1462_
*1881 _1463_
*1882 _1464_
*1883 _1465_
*1884 _1466_
*1885 _1467_
*1886 _1468_
*1887 _1469_
*1888 _1470_
*1889 _1471_
*1890 _1472_
*1891 _1473_
*1892 _1474_
*1893 _1475_
*1894 _1476_
*1895 _1477_
*1896 _1478_
*1897 _1479_
*1898 _1480_
*1899 _1481_
*1900 _1482_
*1901 _1483_
*1902 _1484_
*1903 _1485_
*1904 _1486_
*1905 _1487_
*1906 _1488_
*1907 _1489_
*1908 _1490_
*1909 _1491_
*1910 _1492_
*1911 _1493_
*1912 _1494_
*1913 _1495_
*1914 _1496_
*1915 _1497_
*1916 _1498_
*1917 _1499_
*1918 _1500_
*1919 _1501_
*1920 _1502_
*1921 _1503_
*1922 _1504_
*1923 _1505_
*1924 _1506_
*1925 _1507_
*1926 _1508_
*1927 _1509_
*1928 _1510_
*1929 _1511_
*1930 _1512_
*1931 _1513_
*1932 _1514_
*1933 _1515_
*1934 _1516_
*1935 _1517_
*1936 _1518_
*1937 _1519_
*1938 _1520_
*1939 _1521_
*1940 _1522_
*1941 _1523_
*1942 _1524_
*1943 _1525_
*1944 _1526_
*1945 _1527_
*1946 _1528_
*1947 _1529_
*1948 _1530_
*1949 _1531_
*1950 _1532_
*1951 _1533_
*1952 _1534_
*1953 _1535_
*1954 _1536_
*1955 _1537_
*1956 _1538_
*1957 _1539_
*1958 _1540_
*1959 _1541_
*1960 _1542_
*1961 _1543_
*1962 _1544_
*1963 _1545_
*1964 _1546_
*1965 _1547_
*1966 _1548_
*1967 _1549_
*1968 _1550_
*1969 _1551_
*1970 _1552_
*1971 _1553_
*1972 _1554_
*1973 _1555_
*1974 _1556_
*1975 _1557_
*1976 _1558_
*1977 _1559_
*1978 _1560_
*1979 _1561_
*1980 _1562_
*1981 _1563_
*1982 _1564_
*1983 _1565_
*1984 _1566_
*1985 _1567_
*1986 _1568_
*1987 _1569_
*1988 _1570_
*1989 _1571_
*1990 _1572_
*1991 _1573_
*1992 _1574_
*1993 _1575_
*1994 _1576_
*1995 _1577_
*1996 _1578_
*1997 _1579_
*1998 _1580_
*1999 _1581_
*2000 _1582_
*2001 _1583_
*2002 _1584_
*2003 _1585_
*2004 _1586_
*2005 _1587_
*2006 _1588_
*2007 _1589_
*2008 _1590_
*2009 _1591_
*2010 _1592_
*2011 _1593_
*2012 _1594_
*2013 _1595_
*2014 _1596_
*2015 _1597_
*2016 _1598_
*2017 _1599_
*2018 _1600_
*2019 _1601_
*2020 _1602_
*2021 _1603_
*2022 _1604_
*2023 _1605_
*2024 _1606_
*2025 _1607_
*2026 _1608_
*2027 _1609_
*2028 _1610_
*2029 _1611_
*2030 _1612_
*2031 _1613_
*2032 _1614_
*2033 _1615_
*2034 _1616_
*2035 _1617_
*2036 _1618_
*2037 _1619_
*2038 _1620_
*2039 _1621_
*2040 _1622_
*2041 _1623_
*2042 _1624_
*2043 _1625_
*2044 _1626_
*2045 _1627_
*2046 _1628_
*2047 _1629_
*2048 _1630_
*2049 _1631_
*2050 _1632_
*2051 _1633_
*2052 _1634_
*2053 _1635_
*2054 _1636_
*2055 _1637_
*2056 _1638_
*2057 _1639_
*2058 _1640_
*2059 _1641_
*2060 _1642_
*2061 _1643_
*2062 _1644_
*2063 _1645_
*2064 _1646_
*2065 _1647_
*2066 _1648_
*2067 _1649_
*2068 _1650_
*2069 _1651_
*2070 _1652_
*2071 _1653_
*2072 _1654_
*2073 _1655_
*2074 _1656_
*2075 _1657_
*2076 _1658_
*2077 _1659_
*2078 _1660_
*2079 _1661_
*2080 _1662_
*2081 _1663_
*2082 _1664_
*2083 _1665_
*2084 _1666_
*2085 _1667_
*2086 _1668_
*2087 _1669_
*2088 _1670_
*2089 _1671_
*2090 _1672_
*2091 _1673_
*2092 _1674_
*2093 _1675_
*2094 _1676_
*2095 _1677_
*2096 _1678_
*2097 _1679_
*2098 _1680_
*2099 _1681_
*2100 _1682_
*2101 _1683_
*2102 _1684_
*2103 _1685_
*2104 _1686_
*2105 _1687_
*2106 _1688_
*2107 _1689_
*2108 _1690_
*2109 _1691_
*2110 _1692_
*2111 _1693_
*2112 _1694_
*2113 _1695_
*2114 _1696_
*2115 _1697_
*2116 _1698_
*2117 _1699_
*2118 _1700_
*2119 _1701_
*2120 _1702_
*2121 _1703_
*2122 _1704_
*2123 _1705_
*2124 _1706_
*2125 _1707_
*2126 _1708_
*2127 _1709_
*2128 _1710_
*2129 _1711_
*2130 _1712_
*2131 _1713_
*2132 _1714_
*2133 _1715_
*2134 _1716_
*2135 _1717_
*2136 _1718_
*2137 _1719_
*2138 _1720_
*2139 _1721_
*2140 _1722_
*2141 _1723_
*2142 _1724_
*2143 _1725_
*2144 _1726_
*2145 _1727_
*2146 _1728_
*2147 _1729_
*2148 _1730_
*2149 _1731_
*2150 _1732_
*2151 _1733_
*2152 _1734_
*2153 _1735_
*2154 _1736_
*2155 _1737_
*2156 _1738_
*2157 _1739_
*2158 _1740_
*2159 _1741_
*2160 _1742_
*2161 _1743_
*2162 _1744_
*2163 _1745_
*2164 _1746_
*2165 _1747_
*2166 _1748_
*2167 _1749_
*2168 _1750_
*2169 _1751_
*2170 _1752_
*2171 _1753_
*2172 _1754_
*2173 _1755_
*2174 _1756_
*2175 _1757_
*2176 _1758_
*2177 _1759_
*2178 _1760_
*2179 _1761_
*2180 _1762_
*2181 _1763_
*2182 _1764_
*2183 _1765_
*2184 _1766_
*2185 _1767_
*2186 _1768_
*2187 _1769_
*2188 _1770_
*2189 _1771_
*2190 _1772_
*2191 _1773_
*2192 _1774_
*2193 _1775_
*2194 _1776_
*2195 _1777_
*2196 _1778_
*2197 _1779_
*2198 _1780_
*2199 _1781_
*2200 _1782_
*2201 _1783_
*2202 _1784_
*2203 _1785_
*2204 _1786_
*2205 _1787_
*2206 _1788_
*2207 _1789_
*2208 _1790_
*2209 _1791_
*2210 _1792_
*2211 _1793_
*2212 _1794_
*2213 _1795_
*2214 _1796_
*2215 _1797_
*2216 _1798_
*2217 _1799_
*2218 _1800_
*2219 _1801_
*2220 _1802_
*2221 _1803_
*2222 _1804_
*2223 _1805_
*2224 _1806_
*2225 _1807_
*2226 _1808_
*2227 _1809_
*2228 _1810_
*2229 _1811_
*2230 _1812_
*2231 _1813_
*2232 _1814_
*2233 _1815_
*2234 _1816_
*2235 _1817_
*2236 _1818_
*2237 _1819_
*2238 _1820_
*2239 _1821_
*2240 _1822_
*2241 _1823_
*2242 _1824_
*2243 _1825_
*2244 _1826_
*2245 _1827_
*2246 _1828_
*2247 _1829_
*2248 _1830_
*2249 _1831_
*2250 _1832_
*2251 _1833_
*2252 _1834_
*2253 _1835_
*2254 _1836_
*2255 _1837_
*2256 _1838_
*2257 _1839_
*2258 _1840_
*2259 _1841_
*2260 _1842_
*2261 _1843_
*2262 _1844_
*2263 _1845_
*2264 _1846_
*2265 _1847_
*2266 _1848_