*SPEF "ieee 1481-1999"
*DESIGN "WavePWM"
*DATE "11:11:11 Fri 11 11, 1111"
*VENDOR "OpenRCX"
*PROGRAM "Parallel Extraction"
*VERSION "1.0"
*DESIGN_FLOW "NAME_SCOPE LOCAL" "PIN_CAP NONE"
*DIVIDER /
*DELIMITER :
*BUS_DELIMITER []
*T_UNIT 1 NS
*C_UNIT 1 PF
*R_UNIT 1 OHM
*L_UNIT 1 HENRY

*NAME_MAP
*1 clk
*2 divSel[0]
*3 divSel[1]
*4 divSel[2]
*5 divSel[3]
*6 enable
*7 qcomplex
*8 qcos
*9 qsin
*10 rst
*13 _0000_
*14 _0001_
*15 _0002_
*16 _0003_
*17 _0004_
*18 _0005_
*19 _0006_
*20 _0007_
*21 _0008_
*22 _0009_
*23 _0010_
*24 _0011_
*25 _0012_
*26 _0013_
*27 _0014_
*28 _0015_
*29 _0016_
*30 _0017_
*31 _0018_
*32 _0019_
*33 _0020_
*34 _0021_
*35 _0022_
*36 _0023_
*37 _0024_
*38 _0025_
*39 _0026_
*40 _0027_
*41 _0028_
*42 _0029_
*43 _0030_
*44 _0031_
*45 _0032_
*46 _0033_
*47 _0034_
*48 _0035_
*49 _0036_
*50 _0037_
*51 _0038_
*52 _0039_
*53 _0040_
*54 _0041_
*55 _0042_
*56 _0043_
*57 _0044_
*58 _0045_
*59 _0046_
*60 _0047_
*61 _0048_
*62 _0049_
*63 _0050_
*64 _0051_
*65 _0052_
*66 _0053_
*67 _0054_
*68 _0055_
*69 _0056_
*70 _0057_
*71 _0058_
*72 _0059_
*73 _0060_
*74 _0061_
*75 _0062_
*76 _0063_
*77 _0064_
*78 _0065_
*79 _0066_
*80 _0067_
*81 _0068_
*82 _0069_
*83 _0070_
*84 _0071_
*85 _0072_
*86 _0073_
*87 _0074_
*88 _0075_
*89 _0076_
*90 _0077_
*91 _0078_
*92 _0079_
*93 _0080_
*94 _0081_
*95 _0082_
*96 _0083_
*97 _0084_
*98 _0085_
*99 _0086_
*100 _0087_
*101 _0088_
*102 _0089_
*103 _0090_
*104 _0091_
*105 _0092_
*106 _0093_
*107 _0094_
*108 _0095_
*109 _0096_
*110 _0097_
*111 _0098_
*112 _0099_
*113 _0100_
*114 _0101_
*115 _0102_
*116 _0103_
*117 _0104_
*118 _0105_
*119 _0106_
*120 _0107_
*121 _0108_
*122 _0109_
*123 _0110_
*124 _0111_
*125 _0112_
*126 _0113_
*127 _0114_
*128 _0115_
*129 _0116_
*130 _0117_
*131 _0118_
*132 _0119_
*133 _0120_
*134 _0121_
*135 _0122_
*136 _0123_
*137 _0124_
*138 _0125_
*139 _0126_
*140 _0127_
*141 _0128_
*142 _0129_
*143 _0130_
*144 _0131_
*145 _0132_
*146 _0133_
*147 _0134_
*148 _0135_
*149 _0136_
*150 _0137_
*151 _0138_
*152 _0139_
*153 _0140_
*154 _0141_
*155 _0142_
*156 _0143_
*157 _0144_
*158 _0145_
*159 _0146_
*160 _0147_
*161 _0148_
*162 _0149_
*163 _0150_
*164 _0151_
*165 _0152_
*166 _0153_
*167 _0154_
*168 _0155_
*169 _0156_
*170 _0157_
*171 _0158_
*172 _0159_
*173 _0160_
*174 _0161_
*175 _0162_
*176 _0163_
*177 _0164_
*178 _0165_
*179 _0166_
*180 _0167_
*181 _0168_
*182 _0169_
*183 _0170_
*184 _0171_
*185 _0172_
*186 _0173_
*187 _0174_
*188 _0175_
*189 _0176_
*190 _0177_
*191 _0178_
*192 _0179_
*193 _0180_
*194 _0181_
*195 _0182_
*196 _0183_
*197 _0184_
*198 _0185_
*199 _0186_
*200 _0187_
*201 _0188_
*202 _0189_
*203 _0190_
*204 _0191_
*205 _0192_
*206 _0193_
*207 _0194_
*208 _0195_
*209 _0196_
*210 _0197_
*211 _0198_
*212 _0199_
*213 _0200_
*214 _0201_
*215 _0202_
*216 _0203_
*217 _0204_
*218 _0205_
*219 _0206_
*220 _0207_
*221 _0208_
*222 _0209_
*223 _0210_
*224 _0211_
*225 _0212_
*226 _0213_
*227 _0214_
*228 _0215_
*229 _0216_
*230 _0217_
*231 _0218_
*232 _0219_
*233 _0220_
*234 _0221_
*235 _0222_
*236 _0223_
*237 _0224_
*238 _0225_
*239 _0226_
*240 _0227_
*241 _0228_
*242 _0229_
*243 _0230_
*244 _0231_
*245 _0232_
*246 _0233_
*247 _0234_
*248 _0235_
*249 _0236_
*250 _0237_
*251 _0238_
*252 _0239_
*253 _0240_
*254 _0241_
*255 _0242_
*256 _0243_
*257 _0244_
*258 _0245_
*259 _0246_
*260 _0247_
*261 _0248_
*262 _0249_
*263 _0250_
*264 _0251_
*265 _0252_
*266 _0253_
*267 _0254_
*268 _0255_
*269 _0256_
*270 _0257_
*271 _0258_
*272 _0259_
*273 _0260_
*274 _0261_
*275 _0262_
*276 _0263_
*277 _0264_
*278 _0265_
*279 _0266_
*280 _0267_
*281 _0268_
*282 _0269_
*283 _0270_
*284 _0271_
*285 _0272_
*286 _0273_
*287 _0274_
*288 _0275_
*289 _0276_
*290 _0277_
*291 _0278_
*292 _0279_
*293 _0280_
*294 _0281_
*295 _0282_
*296 _0283_
*297 _0284_
*298 _0285_
*299 _0286_
*300 _0287_
*301 _0288_
*302 _0289_
*303 _0290_
*304 _0291_
*305 _0292_
*306 _0293_
*307 _0294_
*308 _0295_
*309 _0296_
*310 _0297_
*311 _0298_
*312 _0299_
*313 _0300_
*314 _0301_
*315 _0302_
*316 _0303_
*317 _0304_
*318 _0305_
*319 _0306_
*320 _0307_
*321 _0308_
*322 _0309_
*323 _0310_
*324 _0311_
*325 _0312_
*326 _0313_
*327 _0314_
*328 _0315_
*329 _0316_
*330 _0317_
*331 _0318_
*332 _0319_
*333 _0320_
*334 _0321_
*335 _0322_
*336 _0323_
*337 _0324_
*338 _0325_
*339 _0326_
*340 _0327_
*341 _0328_
*342 _0329_
*343 _0330_
*344 _0331_
*345 _0332_
*346 _0333_
*347 _0334_
*348 _0335_
*349 _0336_
*350 _0337_
*351 _0338_
*352 _0339_
*353 _0340_
*354 _0341_
*355 _0342_
*356 _0343_
*357 _0344_
*358 _0345_
*359 _0346_
*360 _0347_
*361 _0348_
*362 _0349_
*363 _0350_
*364 _0351_
*365 _0352_
*366 _0353_
*367 _0354_
*368 _0355_
*369 _0356_
*370 _0357_
*371 _0358_
*372 _0359_
*373 _0360_
*374 _0361_
*375 _0362_
*376 _0363_
*377 _0364_
*378 _0365_
*379 _0366_
*380 _0367_
*381 _0368_
*382 _0369_
*383 _0370_
*384 _0371_
*385 _0372_
*386 _0373_
*387 _0374_
*388 _0375_
*389 _0376_
*390 _0377_
*391 _0378_
*392 _0379_
*393 _0380_
*394 _0381_
*395 _0382_
*396 _0383_
*397 _0384_
*398 _0385_
*399 _0386_
*400 _0387_
*401 _0388_
*402 _0389_
*403 _0390_
*404 _0391_
*405 _0392_
*406 _0393_
*407 _0394_
*408 _0395_
*409 _0396_
*410 _0397_
*411 _0398_
*412 _0399_
*413 _0400_
*414 _0401_
*415 _0402_
*416 _0403_
*417 _0404_
*418 _0405_
*419 _0406_
*420 _0407_
*421 _0408_
*422 _0409_
*423 _0410_
*424 _0411_
*425 _0412_
*426 _0413_
*427 _0414_
*428 _0415_
*429 _0416_
*430 _0417_
*431 _0418_
*432 _0419_
*433 _0420_
*434 _0421_
*435 _0422_
*436 _0423_
*437 _0424_
*438 _0425_
*439 _0426_
*440 _0427_
*441 _0428_
*442 _0429_
*443 _0430_
*444 _0431_
*445 _0432_
*446 _0433_
*447 _0434_
*448 _0435_
*449 _0436_
*450 _0437_
*451 _0438_
*452 _0439_
*453 _0440_
*454 _0441_
*455 _0442_
*456 _0443_
*457 _0444_
*458 _0445_
*459 _0446_
*460 _0447_
*461 _0448_
*462 _0449_
*463 _0450_
*464 _0451_
*465 _0452_
*466 _0453_
*467 _0454_
*468 _0455_
*469 _0456_
*470 _0457_
*471 _0458_
*472 _0459_
*473 _0460_
*474 _0461_
*475 _0462_
*476 _0463_
*477 _0464_
*478 _0465_
*479 _0466_
*480 _0467_
*481 _0468_
*482 _0469_
*483 _0470_
*484 _0471_
*485 _0472_
*486 _0473_
*487 _0474_
*488 _0475_
*489 _0476_
*490 _0477_
*491 _0478_
*492 _0479_
*493 _0480_
*494 _0481_
*495 _0482_
*496 _0483_
*497 _0484_
*498 _0485_
*499 _0486_
*500 _0487_
*501 _0488_
*502 _0489_
*503 _0490_
*504 _0491_
*505 _0492_
*506 _0493_
*507 _0494_
*508 _0495_
*509 _0496_
*510 _0497_
*511 _0498_
*512 _0499_
*513 _0500_
*514 _0501_
*515 _0502_
*516 _0503_
*517 _0504_
*518 _0505_
*519 _0506_
*520 _0507_
*521 _0508_
*522 _0509_
*523 _0510_
*524 _0511_
*525 _0512_
*526 _0513_
*527 _0514_
*528 _0515_
*529 _0516_
*530 _0517_
*531 _0518_
*532 _0519_
*533 _0520_
*534 _0521_
*535 _0522_
*536 _0523_
*537 _0524_
*538 _0525_
*539 _0526_
*540 _0527_
*541 _0528_
*542 _0529_
*543 _0530_
*544 _0531_
*545 _0532_
*546 _0533_
*547 _0534_
*548 _0535_
*549 _0536_
*550 _0537_
*551 _0538_
*552 _0539_
*553 _0540_
*554 _0541_
*555 _0542_
*556 _0543_
*557 _0544_
*558 _0545_
*559 _0546_
*560 _0547_
*561 _0548_
*562 _0549_
*563 _0550_
*564 _0551_
*565 _0552_
*566 _0553_
*567 _0554_
*568 _0555_
*569 _0556_
*570 _0557_
*571 _0558_
*572 _0559_
*573 _0560_
*574 _0561_
*575 _0562_
*576 _0563_
*577 _0564_
*578 _0565_
*579 _0566_
*580 _0567_
*581 _0568_
*582 _0569_
*583 _0570_
*584 _0571_
*585 _0572_
*586 _0573_
*587 _0574_
*588 _0575_
*589 _0576_
*590 _0577_
*591 _0578_
*592 _0579_
*593 _0580_
*594 _0581_
*595 _0582_
*596 _0583_
*597 _0584_
*598 _0585_
*599 _0586_
*600 _0587_
*601 _0588_
*602 _0589_
*603 _0590_
*604 _0591_
*605 _0592_
*606 _0593_
*607 _0594_
*608 _0595_
*609 _0596_
*610 _0597_
*611 _0598_
*612 _0599_
*613 _0600_
*614 _0601_
*615 _0602_
*616 _0603_
*617 _0604_
*618 _0605_
*619 _0606_
*620 _0607_
*621 _0608_
*622 _0609_
*623 _0610_
*624 _0611_
*625 _0612_
*626 _0613_
*627 _0614_
*628 _0615_
*629 _0616_
*630 _0617_
*631 _0618_
*632 _0619_
*633 _0620_
*634 _0621_
*635 _0622_
*636 _0623_
*637 _0624_
*638 _0625_
*639 _0626_
*640 _0627_
*641 _0628_
*642 _0629_
*643 _0630_
*644 _0631_
*645 _0632_
*646 _0633_
*647 _0634_
*648 _0635_
*649 _0636_
*650 _0637_
*651 _0638_
*652 _0639_
*653 _0640_
*654 _0641_
*655 _0642_
*656 _0643_
*657 _0644_
*658 _0645_
*659 _0646_
*660 _0647_
*661 _0648_
*662 _0649_
*663 _0650_
*664 _0651_
*665 _0652_
*666 _0653_
*667 _0654_
*668 _0655_
*669 _0656_
*670 _0657_
*671 _0658_
*672 _0659_
*673 _0660_
*674 _0661_
*675 _0662_
*676 _0663_
*677 _0664_
*678 _0665_
*679 _0666_
*680 _0667_
*681 _0668_
*682 _0669_
*683 _0670_
*684 _0671_
*685 _0672_
*686 _0673_
*687 _0674_
*688 _0675_
*689 _0676_
*690 _0677_
*691 _0678_
*692 _0679_
*693 _0680_
*694 _0681_
*695 _0682_
*696 _0683_
*697 _0684_
*698 _0685_
*699 _0686_
*700 _0687_
*701 _0688_
*702 _0689_
*703 _0690_
*704 _0691_
*705 _0692_
*706 _0693_
*707 _0694_
*708 _0695_
*709 _0696_
*710 _0697_
*711 _0698_
*712 _0699_
*713 _0700_
*714 _0701_
*715 _0702_
*716 _0703_
*717 _0704_
*718 _0705_
*719 _0706_
*720 _0707_
*721 _0708_
*722 _0709_
*723 _0710_
*724 _0711_
*725 _0712_
*726 _0713_
*727 _0714_
*728 _0715_
*729 _0716_
*730 _0717_
*731 _0718_
*732 _0719_
*733 _0720_
*734 _0721_
*735 _0722_
*736 _0723_
*737 _0724_
*738 _0725_
*739 _0726_
*740 _0727_
*741 _0728_
*742 _0729_
*743 _0730_
*744 _0731_
*745 _0732_
*746 _0733_
*747 _0734_
*748 _0735_
*749 _0736_
*750 _0737_
*751 _0738_
*752 _0739_
*753 _0740_
*754 _0741_
*755 _0742_
*756 _0743_
*757 _0744_
*758 _0745_
*759 _0746_
*760 _0747_
*761 _0748_
*762 _0749_
*763 _0750_
*764 _0751_
*765 _0752_
*766 _0753_
*767 _0754_
*768 _0755_
*769 _0756_
*770 _0757_
*771 _0758_
*772 _0759_
*773 _0760_
*774 _0761_
*775 _0762_
*776 _0763_
*777 _0764_
*778 _0765_
*779 _0766_
*780 _0767_
*781 _0768_
*782 _0769_
*783 _0770_
*784 _0771_
*785 _0772_
*786 _0773_
*787 _0774_
*788 _0775_
*789 _0776_
*790 _0777_
*791 _0778_
*792 _0779_
*793 _0780_
*794 _0781_
*795 _0782_
*796 _0783_
*797 _0784_
*798 _0785_
*799 _0786_
*800 _0787_
*801 _0788_
*802 _0789_
*803 _0790_
*804 _0791_
*805 _0792_
*806 _0793_
*807 _0794_
*808 _0795_
*809 _0796_
*810 _0797_
*811 _0798_
*812 _0799_
*813 _0800_
*814 _0801_
*815 _0802_
*816 _0803_
*817 _0804_
*818 _0805_
*819 _0806_
*820 _0807_
*821 _0808_
*822 _0809_
*823 _0810_
*824 _0811_
*825 _0812_
*826 _0813_
*827 _0814_
*828 _0815_
*829 _0816_
*830 _0817_
*831 _0818_
*832 _0819_
*833 _0820_
*834 _0821_
*835 _0822_
*836 _0823_
*837 _0824_
*838 _0825_
*839 _0826_
*840 _0827_
*841 _0828_
*842 _0829_
*843 _0830_
*844 _0831_
*845 _0832_
*846 _0833_
*847 _0834_
*848 _0835_
*849 _0836_
*850 _0837_
*851 _0838_
*852 _0839_
*853 _0840_
*854 _0841_
*855 _0842_
*856 _0843_
*857 _0844_
*858 _0845_
*859 _0846_
*860 _0847_
*861 _0848_
*862 _0849_
*863 _0850_
*864 _0851_
*865 _0852_
*866 _0853_
*867 _0854_
*868 _0855_
*869 _0856_
*870 _0857_
*871 _0858_
*872 _0859_
*873 _0860_
*874 _0861_
*875 _0862_
*876 _0863_
*877 _0864_
*878 _0865_
*879 _0866_
*880 _0867_
*881 _0868_
*882 _0869_
*883 _0870_
*884 _0871_
*885 _0872_
*886 _0873_
*887 _0874_
*888 _0875_
*889 _0876_
*890 _0877_
*891 _0878_
*892 _0879_
*893 _0880_
*894 _0881_
*895 _0882_
*896 _0883_
*897 _0884_
*898 _0885_
*899 _0886_
*900 _0887_
*901 _0888_
*902 _0889_
*903 _0890_
*904 _0891_
*905 _0892_
*906 _0893_
*907 _0894_
*908 _0895_
*909 _0896_
*910 _0897_
*911 _0898_
*912 _0899_
*913 _0900_
*914 _0901_
*915 _0902_
*916 _0903_
*917 _0904_
*918 _0905_
*919 _0906_
*920 _0907_
*921 _0908_
*922 _0909_
*923 _0910_
*924 _0911_
*925 _0912_
*926 _0913_
*927 _0914_
*928 _0915_
*929 _0916_
*930 _0917_
*931 _0918_
*932 _0919_
*933 _0920_
*934 _0921_
*935 _0922_
*936 _0923_
*937 _0924_
*938 _0925_
*939 _0926_
*940 _0927_
*941 _0928_
*942 _0929_
*943 _0930_
*944 _0931_
*945 _0932_
*946 _0933_
*947 _0934_
*948 _0935_
*949 _0936_
*950 _0937_
*951 _0938_
*952 _0939_
*953 _0940_
*954 _0941_
*955 _0942_
*956 _0943_
*957 _0944_
*958 _0945_
*959 _0946_
*960 _0947_
*961 _0948_
*962 _0949_
*963 _0950_
*964 _0951_
*965 _0952_
*966 _0953_
*967 _0954_
*968 _0955_
*969 _0956_
*970 _0957_
*971 _0958_
*972 _0959_
*973 _0960_
*974 _0961_
*975 _0962_
*976 _0963_
*977 _0964_
*978 _0965_
*979 _0966_
*980 _0967_
*981 _0968_
*982 _0969_
*983 _0970_
*984 _0971_
*985 _0972_
*986 _0973_
*987 _0974_
*988 _0975_
*989 _0976_
*990 _0977_
*991 _0978_
*992 _0979_
*993 _0980_
*994 _0981_
*995 _0982_
*996 _0983_
*997 _0984_
*998 _0985_
*999 _0986_
*1000 _0987_
*1001 _0988_
*1002 _0989_
*1003 _0990_
*1004 _0991_
*1005 _0992_
*1006 _0993_
*1007 _0994_
*1008 _0995_
*1009 _0996_
*1010 _0997_
*1011 _0998_
*1012 _0999_
*1013 _1000_
*1014 _1001_
*1015 _1002_
*1016 _1003_
*1017 _1004_
*1018 _1005_
*1019 _1006_
*1020 _1007_
*1021 _1008_
*1022 _1009_
*1023 _1010_
*1024 _1011_
*1025 _1012_
*1026 _1013_
*1027 _1014_
*1028 _1015_
*1029 _1016_
*1030 _1017_
*1031 _1018_
*1032 _1019_
*1033 _1020_
*1034 _1021_
*1035 _1022_
*1036 _1023_
*1037 _1024_
*1038 _1025_
*1039 _1026_
*1040 _1027_
*1041 _1028_
*1042 _1029_
*1043 _1030_
*1044 _1031_
*1045 _1032_
*1046 _1033_
*1047 _1034_
*1048 _1035_
*1049 _1036_
*1050 _1037_
*1051 _1038_
*1052 _1039_
*1053 _1040_
*1054 _1041_
*1055 _1042_
*1056 _1043_
*1057 _1044_
*1058 _1045_
*1059 _1046_
*1060 _1047_
*1061 _1048_
*1062 _1049_
*1063 _1050_
*1064 _1051_
*1065 _1052_
*1066 _1053_
*1067 _1054_
*1068 _1055_
*1069 _1056_
*1070 _1057_
*1071 _1058_
*1072 _1059_
*1073 _1060_
*1074 _1061_
*1075 _1062_
*1076 _1063_
*1077 _1064_
*1078 _1065_
*1079 _1066_
*1080 _1067_
*1081 _1068_
*1082 _1069_
*1083 _1070_
*1084 _1071_
*1085 _1072_
*1086 _1073_
*1087 _1074_
*1088 _1075_
*1089 _1076_
*1090 _1077_
*1091 _1078_
*1092 _1079_
*1093 _1080_
*1094 _1081_
*1095 _1082_
*1096 _1083_
*1097 _1084_
*1098 _1085_
*1099 _1086_
*1100 _1087_
*1101 _1088_
*1102 _1089_
*1103 _1090_
*1104 _1091_
*1105 _1092_
*1106 _1093_
*1107 _1094_
*1108 _1095_
*1109 _1096_
*1110 _1097_
*1111 _1098_
*1112 _1099_
*1113 _1100_
*1114 _1101_
*1115 _1102_
*1116 _1103_
*1117 _1104_
*1118 _1105_
*1119 _1106_
*1120 _1107_
*1121 _1108_
*1122 _1109_
*1123 _1110_
*1124 _1111_
*1125 _1112_
*1126 _1113_
*1127 _1114_
*1128 _1115_
*1129 _1116_
*1130 _1117_
*1131 _1118_
*1132 _1119_
*1133 _1120_
*1134 _1121_
*1135 _1122_
*1136 _1123_
*1137 _1124_
*1138 _1125_
*1139 _1126_
*1140 _1127_
*1141 _1128_
*1142 _1129_
*1143 _1130_
*1144 _1131_
*1145 _1132_
*1146 _1133_
*1147 _1134_
*1148 _1135_
*1149 _1136_
*1150 _1137_
*1151 _1138_
*1152 _1139_
*1153 _1140_
*1154 _1141_
*1155 _1142_
*1156 _1143_
*1157 _1144_
*1158 _1145_
*1159 _1146_
*1160 _1147_
*1161 _1148_
*1162 _1149_
*1163 _1150_
*1164 _1151_
*1165 _1152_
*1166 _1153_
*1167 _1154_
*1168 _1155_
*1169 _1156_
*1170 _1157_
*1171 _1158_
*1172 _1159_
*1173 _1160_
*1174 _1161_
*1175 _1162_
*1176 _1163_
*1177 _1164_
*1178 _1165_
*1179 _1166_
*1180 _1167_
*1181 _1168_
*1182 _1169_
*1183 _1170_
*1184 _1171_
*1185 _1172_
*1186 _1173_
*1187 _1174_
*1188 _1175_
*1189 _1176_
*1190 _1177_
*1191 _1178_
*1192 _1179_
*1193 _1180_
*1194 _1181_
*1195 _1182_
*1196 _1183_
*1197 _1184_
*1198 _1185_
*1199 _1186_
*1200 _1187_
*1201 _1188_
*1202 _1189_
*1203 _1190_
*1204 _1191_
*1205 _1192_
*1206 _1193_
*1207 _1194_
*1208 _1195_
*1209 _1196_
*1210 _1197_
*1211 _1198_
*1212 _1199_
*1213 _1200_
*1214 _1201_
*1215 _1202_
*1216 _1203_
*1217 _1204_
*1218 _1205_
*1219 _1206_
*1220 _1207_
*1221 _1208_
*1222 _1209_
*1223 _1210_
*1224 _1211_
*1225 _1212_
*1226 _1213_
*1227 _1214_
*1228 _1215_
*1229 _1216_
*1230 _1217_
*1231 _1218_
*1232 _1219_
*1233 _1220_
*1234 _1221_
*1235 _1222_
*1236 _1223_
*1237 _1224_
*1238 _1225_
*1239 _1226_
*1240 _1227_
*1241 _1228_
*1242 _1229_
*1243 _1230_
*1244 _1231_
*1245 _1232_
*1246 _1233_
*1247 _1234_
*1248 _1235_
*1249 _1236_
*1250 _1237_
*1251 _1238_
*1252 _1239_
*1253 _1240_
*1254 _1241_
*1255 _1242_
*1256 _1243_
*1257 _1244_
*1258 _1245_
*1259 _1246_
*1260 _1247_
*1261 _1248_
*1262 _1249_
*1263 _1250_
*1264 _1251_
*1265 _1252_
*1266 _1253_
*1267 _1254_
*1268 _1255_
*1269 _1256_
*1270 _1257_
*1271 _1258_
*1272 _1259_
*1273 _1260_
*1274 _1261_
*1275 _1262_
*1276 _1263_
*1277 _1264_
*1278 _1265_
*1279 _1266_
*1280 _1267_
*1281 _1268_
*1282 _1269_
*1283 _1270_
*1284 _1271_
*1285 _1272_
*1286 _1273_
*1287 _1274_
*1288 _1275_
*1289 _1276_
*1290 _1277_
*1291 _1278_
*1292 _1279_
*1293 _1280_
*1294 _1281_
*1295 _1282_
*1296 _1283_
*1297 _1284_
*1298 _1285_
*1299 _1286_
*1300 _1287_
*1301 _1288_
*1302 _1289_
*1303 _1290_
*1304 _1291_
*1305 _1292_
*1306 _1293_
*1307 _1294_
*1308 _1295_
*1309 _1296_
*1310 _1297_
*1311 _1298_
*1312 _1299_
*1313 _1300_
*1314 _1301_
*1315 _1302_
*1316 _1303_
*1317 _1304_
*1318 _1305_
*1319 _1306_
*1320 _1307_
*1321 _1308_
*1322 _1309_
*1323 _1310_
*1324 _1311_
*1325 _1312_
*1326 _1313_
*1327 _1314_
*1328 _1315_
*1329 _1316_
*1330 _1317_
*1331 _1318_
*1332 _1319_
*1333 _1320_
*1334 _1321_
*1335 _1322_
*1336 _1323_
*1337 _1324_
*1338 _1325_
*1339 _1326_
*1340 _1327_
*1341 _1328_
*1342 _1329_
*1343 _1330_
*1344 _1331_
*1345 _1332_
*1346 _1333_
*1347 _1334_
*1348 _1335_
*1349 _1336_
*1350 _1337_
*1351 _1338_
*1352 _1339_
*1353 _1340_
*1354 _1341_
*1355 _1342_
*1356 _1343_
*1357 _1344_
*1358 _1345_
*1359 _1346_
*1360 _1347_
*1361 _1348_
*1362 _1349_
*1363 _1350_
*1364 _1351_
*1365 _1352_
*1366 _1353_
*1367 _1354_
*1368 _1355_
*1369 _1356_
*1370 _1357_
*1371 _1358_
*1372 _1359_
*1373 _1360_
*1374 _1361_
*1375 _1362_
*1376 _1363_
*1377 _1364_
*1378 _1365_
*1379 _1366_
*1380 _1367_
*1381 _1368_
*1382 _1369_
*1383 _1370_
*1384 _1371_
*1385 _1372_
*1386 _1373_
*1387 _1374_
*1388 _1375_
*1389 _1376_
*1390 _1377_
*1391 _1378_
*1392 _1379_
*1393 _1380_
*1394 _1381_
*1395 _1382_
*1396 _1383_
*1397 _1384_
*1398 _1385_
*1399 _1386_
*1400 _1387_
*1401 _1388_
*1402 _1389_
*1403 _1390_
*1404 _1391_
*1405 _1392_
*1406 _1393_
*1407 _1394_
*1408 _1395_
*1409 _1396_
*1410 _1397_
*1411 _1398_
*1412 _1399_
*1413 _1400_
*1414 _1401_
*1415 _1402_
*1416 _1403_
*1417 _1404_
*1418 _1405_
*1419 _1406_
*1420 _1407_
*1421 _1408_
*1422 _1409_
*1423 _1410_
*1424 _1411_
*1425 _1412_
*1426 _1413_
*1427 _1414_
*1428 _1415_
*1429 _1416_
*1430 _1417_
*1431 _1418_
*1432 _1419_
*1433 _1420_
*1434 _1421_
*1435 _1422_
*1436 _1423_
*1437 _1424_
*1438 _1425_
*1439 _1426_
*1440 _1427_
*1441 _1428_
*1442 _1429_
*1443 _1430_
*1444 _1431_
*1445 _1432_
*1446 _1433_
*1447 _1434_
*1448 _1435_
*1449 _1436_
*1450 _1437_
*1451 _1438_
*1452 _1439_
*1453 _1440_
*1454 _1441_
*1455 _1442_
*1456 _1443_
*1457 _1444_
*1458 _1445_
*1459 _1446_
*1460 _1447_
*1461 _1448_
*1462 _1449_
*1463 _1450_
*1464 _1451_
*1465 _1452_
*1466 _1453_
*1467 _1454_
*1468 _1455_
*1469 _1456_
*1470 _1457_
*1471 _1458_
*1472 _1459_
*1473 _1460_
*1474 _1461_
*1475 _1462_
*1476 _1463_
*1477 _1464_
*1478 _1465_
*1479 _1466_
*1480 _1467_
*1481 _1468_
*1482 _1469_
*1483 _1470_
*1484 _1471_
*1485 _1472_
*1486 _1473_
*1487 _1474_
*1488 _1475_
*1489 _1476_
*1490 _1477_
*1491 _1478_
*1492 _1479_
*1493 _1480_
*1494 _1481_
*1495 _1482_
*1496 _1483_
*1497 _1484_
*1498 _1485_
*1499 _1486_
*1500 _1487_
*1501 _1488_
*1502 _1489_
*1503 _1490_
*1504 _1491_
*1505 _1492_
*1506 _1493_
*1507 _1494_
*1508 _1495_
*1509 _1496_
*1510 _1497_
*1511 _1498_
*1512 _1499_
*1513 _1500_
*1514 _1501_
*1515 _1502_
*1516 _1503_
*1517 _1504_
*1518 _1505_
*1519 _1506_
*1520 _1507_
*1521 _1508_
*1522 _1509_
*1523 _1510_
*1524 _1511_
*1525 _1512_
*1526 _1513_
*1527 _1514_
*1528 _1515_
*1529 _1516_
*1530 _1517_
*1531 _1518_
*1532 _1519_
*1533 _1520_
*1534 _1521_
*1535 _1522_
*1536 _1523_
*1537 _1524_
*1538 _1525_
*1539 _1526_
*1540 _1527_
*1541 _1528_
*1542 _1529_
*1543 _1530_
*1544 _1531_
*1545 _1532_
*1546 _1533_
*1547 _1534_
*1548 _1535_
*1549 _1536_
*1550 _1537_
*1551 _1538_
*1552 _1539_
*1553 _1540_
*1554 _1541_
*1555 _1542_
*1556 _1543_
*1557 _1544_
*1558 _1545_
*1559 _1546_
*1560 _1547_
*1561 _1548_
*1562 _1549_
*1563 _1550_
*1564 _1551_
*1565 _1552_
*1566 _1553_
*1567 _1554_
*1568 _1555_
*1569 _1556_
*1570 _1557_
*1571 _1558_
*1572 _1559_
*1573 _1560_
*1574 _1561_
*1575 _1562_
*1576 _1563_
*1577 _1564_
*1578 _1565_
*1579 _1566_
*1580 _1567_
*1581 _1568_
*1582 _1569_
*1583 _1570_
*1584 _1571_
*1585 _1572_
*1586 _1573_
*1587 _1574_
*1588 _1575_
*1589 _1576_
*1590 _1577_
*1591 _1578_
*1592 _1579_
*1593 _1580_
*1594 _1581_
*1595 _1582_
*1596 _1583_
*1597 _1584_
*1598 _1585_
*1599 _1586_
*1600 _1587_
*1601 _1588_
*1602 _1589_
*1603 _1590_
*1604 _1591_
*1605 _1592_
*1606 _1593_
*1607 _1594_
*1608 _1595_
*1609 _1596_
*1610 _1597_
*1611 _1598_
*1612 clknet_0_clk
*1613 clknet_2_0__leaf_clk
*1614 clknet_2_1__leaf_clk
*1615 clknet_2_2__leaf_clk
*1616 clknet_2_3__leaf_clk
*1617 csTable\.address\[0\]
*1618 csTable\.address\[1\]
*1619 csTable\.address\[2\]
*1620 csTable\.address\[3\]
*1621 csTable\.address\[4\]
*1622 csTable\.address\[5\]
*1623 csTable\.address\[6\]
*1624 csTable\.address\[7\]
*1625 freeRunCntr\[0\]
*1626 freeRunCntr\[10\]
*1627 freeRunCntr\[11\]
*1628 freeRunCntr\[12\]
*1629 freeRunCntr\[13\]
*1630 freeRunCntr\[14\]
*1631 freeRunCntr\[15\]
*1632 freeRunCntr\[16\]
*1633 freeRunCntr\[17\]
*1634 freeRunCntr\[1\]
*1635 freeRunCntr\[26\]
*1636 freeRunCntr\[27\]
*1637 freeRunCntr\[28\]
*1638 freeRunCntr\[2\]
*1639 freeRunCntr\[3\]
*1640 freeRunCntr\[4\]
*1641 freeRunCntr\[5\]
*1642 freeRunCntr\[6\]
*1643 freeRunCntr\[7\]
*1644 freeRunCntr\[8\]
*1645 freeRunCntr\[9\]
*1646 net1
*1647 net10
*1648 net11
*1649 net12
*1650 net2
*1651 net3
*1652 net4
*1653 net5
*1654 net6
*1655 net7
*1656 net8
*1657 net9
*1658 sigRom\.address\[0\]
*1659 sigRom\.address\[1\]
*1660 sigRom\.address\[2\]
*1661 sigRom\.address\[3\]
*1662 ANTENNA__1601__I
*1663 ANTENNA__1602__A1
*1664 ANTENNA__1602__A2
*1665 ANTENNA__1603__I
*1666 ANTENNA__1604__I
*1667 ANTENNA__1605__A1
*1668 ANTENNA__1605__A2
*1669 ANTENNA__1606__I
*1670 ANTENNA__1608__A1
*1671 ANTENNA__1608__A2
*1672 ANTENNA__1610__A1
*1673 ANTENNA__1610__A2
*1674 ANTENNA__1611__A1
*1675 ANTENNA__1613__A1
*1676 ANTENNA__1613__A2
*1677 ANTENNA__1614__A1
*1678 ANTENNA__1614__A2
*1679 ANTENNA__1615__A1
*1680 ANTENNA__1615__A2
*1681 ANTENNA__1615__B
*1682 ANTENNA__1616__A1
*1683 ANTENNA__1616__A2
*1684 ANTENNA__1617__I
*1685 ANTENNA__1618__I
*1686 ANTENNA__1619__A1
*1687 ANTENNA__1619__A2
*1688 ANTENNA__1621__I
*1689 ANTENNA__1622__A1
*1690 ANTENNA__1622__A2
*1691 ANTENNA__1624__I
*1692 ANTENNA__1625__A1
*1693 ANTENNA__1625__A2
*1694 ANTENNA__1627__I
*1695 ANTENNA__1628__A1
*1696 ANTENNA__1628__A2
*1697 ANTENNA__1628__B
*1698 ANTENNA__1629__A1
*1699 ANTENNA__1629__A2
*1700 ANTENNA__1630__I
*1701 ANTENNA__1631__A1
*1702 ANTENNA__1631__B
*1703 ANTENNA__1632__A1
*1704 ANTENNA__1632__A2
*1705 ANTENNA__1633__I
*1706 ANTENNA__1635__I
*1707 ANTENNA__1636__A1
*1708 ANTENNA__1636__A2
*1709 ANTENNA__1636__B
*1710 ANTENNA__1637__I
*1711 ANTENNA__1638__I
*1712 ANTENNA__1639__A1
*1713 ANTENNA__1639__A2
*1714 ANTENNA__1639__A3
*1715 ANTENNA__1640__A1
*1716 ANTENNA__1640__A2
*1717 ANTENNA__1640__B
*1718 ANTENNA__1641__A1
*1719 ANTENNA__1641__A2
*1720 ANTENNA__1641__B2
*1721 ANTENNA__1642__I
*1722 ANTENNA__1643__A1
*1723 ANTENNA__1643__B2
*1724 ANTENNA__1644__I
*1725 ANTENNA__1645__A1
*1726 ANTENNA__1645__A2
*1727 ANTENNA__1646__A1
*1728 ANTENNA__1647__I
*1729 ANTENNA__1648__A1
*1730 ANTENNA__1648__A2
*1731 ANTENNA__1648__A3
*1732 ANTENNA__1648__A4
*1733 ANTENNA__1649__A1
*1734 ANTENNA__1650__A1
*1735 ANTENNA__1650__A2
*1736 ANTENNA__1651__A1
*1737 ANTENNA__1651__A2
*1738 ANTENNA__1652__A1
*1739 ANTENNA__1652__A2
*1740 ANTENNA__1652__B
*1741 ANTENNA__1653__A1
*1742 ANTENNA__1653__A2
*1743 ANTENNA__1654__A1
*1744 ANTENNA__1654__A2
*1745 ANTENNA__1654__B1
*1746 ANTENNA__1655__A1
*1747 ANTENNA__1656__A1
*1748 ANTENNA__1656__A2
*1749 ANTENNA__1656__B1
*1750 ANTENNA__1656__B2
*1751 ANTENNA__1657__I
*1752 ANTENNA__1658__A1
*1753 ANTENNA__1658__A2
*1754 ANTENNA__1659__I
*1755 ANTENNA__1660__A1
*1756 ANTENNA__1660__A2
*1757 ANTENNA__1661__I
*1758 ANTENNA__1662__I
*1759 ANTENNA__1663__A1
*1760 ANTENNA__1663__A2
*1761 ANTENNA__1664__A1
*1762 ANTENNA__1665__A1
*1763 ANTENNA__1665__A2
*1764 ANTENNA__1665__B1
*1765 ANTENNA__1665__B2
*1766 ANTENNA__1666__A1
*1767 ANTENNA__1666__A2
*1768 ANTENNA__1666__B1
*1769 ANTENNA__1666__B2
*1770 ANTENNA__1668__A1
*1771 ANTENNA__1668__A2
*1772 ANTENNA__1669__A1
*1773 ANTENNA__1669__A2
*1774 ANTENNA__1670__A1
*1775 ANTENNA__1670__A2
*1776 ANTENNA__1673__I
*1777 ANTENNA__1674__I
*1778 ANTENNA__1675__I0
*1779 ANTENNA__1675__I1
*1780 ANTENNA__1675__S
*1781 ANTENNA__1676__I
*1782 ANTENNA__1677__A1
*1783 ANTENNA__1677__A2
*1784 ANTENNA__1677__B
*1785 ANTENNA__1678__A1
*1786 ANTENNA__1679__A1
*1787 ANTENNA__1679__A2
*1788 ANTENNA__1680__A2
*1789 ANTENNA__1680__B
*1790 ANTENNA__1681__I
*1791 ANTENNA__1682__A1
*1792 ANTENNA__1682__A2
*1793 ANTENNA__1682__B
*1794 ANTENNA__1682__C
*1795 ANTENNA__1683__I
*1796 ANTENNA__1684__A2
*1797 ANTENNA__1684__B
*1798 ANTENNA__1685__A1
*1799 ANTENNA__1685__A2
*1800 ANTENNA__1686__I
*1801 ANTENNA__1687__A1
*1802 ANTENNA__1687__A2
*1803 ANTENNA__1687__B
*1804 ANTENNA__1688__A1
*1805 ANTENNA__1688__A2
*1806 ANTENNA__1688__B
*1807 ANTENNA__1689__A1
*1808 ANTENNA__1689__A2
*1809 ANTENNA__1689__B
*1810 ANTENNA__1690__A1
*1811 ANTENNA__1690__A2
*1812 ANTENNA__1690__A3
*1813 ANTENNA__1691__A1
*1814 ANTENNA__1692__A1
*1815 ANTENNA__1692__A2
*1816 ANTENNA__1693__A1
*1817 ANTENNA__1693__A2
*1818 ANTENNA__1694__A1
*1819 ANTENNA__1694__A2
*1820 ANTENNA__1694__A3
*1821 ANTENNA__1694__B1
*1822 ANTENNA__1694__B2
*1823 ANTENNA__1695__A1
*1824 ANTENNA__1695__A2
*1825 ANTENNA__1696__A1
*1826 ANTENNA__1696__B2
*1827 ANTENNA__1697__A1
*1828 ANTENNA__1697__A2
*1829 ANTENNA__1697__A3
*1830 ANTENNA__1698__A1
*1831 ANTENNA__1698__A2
*1832 ANTENNA__1698__B
*1833 ANTENNA__1700__I
*1834 ANTENNA__1701__A1
*1835 ANTENNA__1701__A2
*1836 ANTENNA__1701__B
*1837 ANTENNA__1701__C
*1838 ANTENNA__1702__A1
*1839 ANTENNA__1702__A2
*1840 ANTENNA__1702__C
*1841 ANTENNA__1703__A1
*1842 ANTENNA__1703__A2
*1843 ANTENNA__1703__A3
*1844 ANTENNA__1704__B
*1845 ANTENNA__1705__A1
*1846 ANTENNA__1705__A2
*1847 ANTENNA__1705__B
*1848 ANTENNA__1706__A1
*1849 ANTENNA__1708__A1
*1850 ANTENNA__1708__A2
*1851 ANTENNA__1708__B
*1852 ANTENNA__1708__C
*1853 ANTENNA__1709__A1
*1854 ANTENNA__1709__A2
*1855 ANTENNA__1709__B
*1856 ANTENNA__1710__A1
*1857 ANTENNA__1710__B
*1858 ANTENNA__1711__A1
*1859 ANTENNA__1711__A2
*1860 ANTENNA__1712__A1
*1861 ANTENNA__1712__A2
*1862 ANTENNA__1713__I
*1863 ANTENNA__1714__I
*1864 ANTENNA__1715__A1
*1865 ANTENNA__1715__A2
*1866 ANTENNA__1715__B
*1867 ANTENNA__1716__A1
*1868 ANTENNA__1716__A2
*1869 ANTENNA__1717__C
*1870 ANTENNA__1718__B
*1871 ANTENNA__1719__A1
*1872 ANTENNA__1721__A1
*1873 ANTENNA__1721__A2
*1874 ANTENNA__1721__B1
*1875 ANTENNA__1721__B2
*1876 ANTENNA__1722__A1
*1877 ANTENNA__1722__A2
*1878 ANTENNA__1723__A1
*1879 ANTENNA__1723__A2
*1880 ANTENNA__1724__A1
*1881 ANTENNA__1724__A2
*1882 ANTENNA__1725__A1
*1883 ANTENNA__1725__A2
*1884 ANTENNA__1726__A1
*1885 ANTENNA__1726__A2
*1886 ANTENNA__1726__B
*1887 ANTENNA__1727__A1
*1888 ANTENNA__1727__A2
*1889 ANTENNA__1727__A3
*1890 ANTENNA__1728__I
*1891 ANTENNA__1729__I
*1892 ANTENNA__1730__I0
*1893 ANTENNA__1730__I1
*1894 ANTENNA__1731__A1
*1895 ANTENNA__1731__A2
*1896 ANTENNA__1731__A3
*1897 ANTENNA__1732__B
*1898 ANTENNA__1733__I
*1899 ANTENNA__1734__A1
*1900 ANTENNA__1734__A2
*1901 ANTENNA__1734__A3
*1902 ANTENNA__1734__B
*1903 ANTENNA__1735__A1
*1904 ANTENNA__1735__A2
*1905 ANTENNA__1736__A1
*1906 ANTENNA__1737__A1
*1907 ANTENNA__1737__A2
*1908 ANTENNA__1738__A1
*1909 ANTENNA__1738__A2
*1910 ANTENNA__1739__A1
*1911 ANTENNA__1739__A2
*1912 ANTENNA__1740__A1
*1913 ANTENNA__1740__A2
*1914 ANTENNA__1741__C
*1915 ANTENNA__1742__A1
*1916 ANTENNA__1742__A2
*1917 ANTENNA__1742__B
*1918 ANTENNA__1743__A1
*1919 ANTENNA__1743__A2
*1920 ANTENNA__1743__A3
*1921 ANTENNA__1745__A1
*1922 ANTENNA__1745__A2
*1923 ANTENNA__1745__B1
*1924 ANTENNA__1745__B2
*1925 ANTENNA__1745__C
*1926 ANTENNA__1746__A1
*1927 ANTENNA__1746__A2
*1928 ANTENNA__1747__A1
*1929 ANTENNA__1747__A2
*1930 ANTENNA__1748__A1
*1931 ANTENNA__1748__A2
*1932 ANTENNA__1748__B
*1933 ANTENNA__1749__B
*1934 ANTENNA__1750__B
*1935 ANTENNA__1751__A1
*1936 ANTENNA__1751__A2
*1937 ANTENNA__1752__A1
*1938 ANTENNA__1752__A2
*1939 ANTENNA__1753__A1
*1940 ANTENNA__1753__A2
*1941 ANTENNA__1753__A3
*1942 ANTENNA__1753__B1
*1943 ANTENNA__1753__B2
*1944 ANTENNA__1754__A1
*1945 ANTENNA__1754__A2
*1946 ANTENNA__1755__A1
*1947 ANTENNA__1755__A2
*1948 ANTENNA__1755__B
*1949 ANTENNA__1756__A1
*1950 ANTENNA__1756__B
*1951 ANTENNA__1757__A1
*1952 ANTENNA__1757__A2
*1953 ANTENNA__1758__B1
*1954 ANTENNA__1758__B2
*1955 ANTENNA__1758__C
*1956 ANTENNA__1759__A1
*1957 ANTENNA__1759__C
*1958 ANTENNA__1760__A1
*1959 ANTENNA__1760__A2
*1960 ANTENNA__1760__A3
*1961 ANTENNA__1761__A1
*1962 ANTENNA__1761__A2
*1963 ANTENNA__1761__B
*1964 ANTENNA__1763__A1
*1965 ANTENNA__1763__A2
*1966 ANTENNA__1763__B1
*1967 ANTENNA__1763__B2
*1968 ANTENNA__1764__I
*1969 ANTENNA__1766__A1
*1970 ANTENNA__1766__A2
*1971 ANTENNA__1767__A1
*1972 ANTENNA__1767__A2
*1973 ANTENNA__1770__A1
*1974 ANTENNA__1770__A2
*1975 ANTENNA__1770__B
*1976 ANTENNA__1771__A1
*1977 ANTENNA__1771__A2
*1978 ANTENNA__1772__A1
*1979 ANTENNA__1772__A2
*1980 ANTENNA__1772__B
*1981 ANTENNA__1773__A1
*1982 ANTENNA__1774__A1
*1983 ANTENNA__1774__A2
*1984 ANTENNA__1774__A3
*1985 ANTENNA__1775__A1
*1986 ANTENNA__1775__A2
*1987 ANTENNA__1775__B1
*1988 ANTENNA__1775__B2
*1989 ANTENNA__1775__C
*1990 ANTENNA__1776__A1
*1991 ANTENNA__1776__A2
*1992 ANTENNA__1776__B
*1993 ANTENNA__1777__I
*1994 ANTENNA__1778__A1
*1995 ANTENNA__1778__A2
*1996 ANTENNA__1779__A1
*1997 ANTENNA__1779__A2
*1998 ANTENNA__1780__A1
*1999 ANTENNA__1780__A2
*2000 ANTENNA__1781__A1
*2001 ANTENNA__1781__C
*2002 ANTENNA__1782__A1
*2003 ANTENNA__1782__A2
*2004 ANTENNA__1782__B
*2005 ANTENNA__1783__A1
*2006 ANTENNA__1783__A2
*2007 ANTENNA__1783__B1
*2008 ANTENNA__1783__C
*2009 ANTENNA__1784__A1
*2010 ANTENNA__1785__A1
*2011 ANTENNA__1786__A1
*2012 ANTENNA__1786__A2
*2013 ANTENNA__1787__A1
*2014 ANTENNA__1787__A2
*2015 ANTENNA__1787__B1
*2016 ANTENNA__1787__B2
*2017 ANTENNA__1787__C
*2018 ANTENNA__1788__A1
*2019 ANTENNA__1788__A2
*2020 ANTENNA__1788__A3
*2021 ANTENNA__1789__A1
*2022 ANTENNA__1789__A2
*2023 ANTENNA__1789__B1
*2024 ANTENNA__1789__B2
*2025 ANTENNA__1789__C
*2026 ANTENNA__1790__B
*2027 ANTENNA__1791__A1
*2028 ANTENNA__1791__A2
*2029 ANTENNA__1792__A1
*2030 ANTENNA__1792__A2
*2031 ANTENNA__1792__A3